$ MSC.Nastran input file created on November  30, 2021 at 17:17:08 by
$ Patran 2020  (Student Edition)
$ Direct Text Input for Nastran System Cell Section
$ Direct Text Input for File Management Section
$ Direct Text Input for Executive Control
$ Buckling Analysis, Database
SOL 105
CEND
$ Direct Text Input for Global Case Control Data
TITLE = Buckling
SUBTITLE = Buckling
LABEL = Buckling
ECHO = NONE
SUBCASE 1
$ Subcase name : BC
   SUBTITLE=BC
   SPC = 2
   LOAD = 2
   DISPLACEMENT(PLOT,SORT1,REAL)=ALL
   SPCFORCES(PLOT,SORT1,REAL)=ALL
SUBCASE 2
$ Subcase name : BC
   SUBTITLE=BC
   SPC = 2
   METHOD = 1
   VECTOR(PLOT,SORT1,REAL)=ALL
   SPCFORCES(PLOT,SORT1,REAL)=ALL
   STATSUB = 1
BEGIN BULK
$ Direct Text Input for Bulk Data
PARAM    POST    0
PARAM   PRTMAXIM YES
EIGRL    1                       3       0
$ Elements and Element Properties for region : Shell_C_0
$ Composite Property Reference Material: Laminate_C_0
$ Composite Material Description :
PCOMP    2                       .089    HILL
         2       .183    0.      YES     2       .183    0.      YES
         2       .183    0.      YES     2       .183    0.      YES
         2       .183    0.      YES     2       .183    0.      YES
         2       .183    0.      YES     2       .183    0.      YES
         2       .183    0.      YES     2       .183    0.      YES
$ Pset: "Shell_C_0" will be imported as: "pcomp.2"
CQUAD4   27      2       67      51      1       68
CQUAD4   28      2       69      67      68      70
CQUAD4   29      2       71      69      70      72
CQUAD4   30      2       74      71      72      73
CQUAD4   31      2       75      74      73      76
CQUAD4   32      2       77      75      76      78
CQUAD4   33      2       79      77      78      80
CQUAD4   34      2       66      79      80      65
CQUAD4   35      2       81      45      49      82
CQUAD4   36      2       83      81      82      84
CQUAD4   37      2       85      83      84      86
CQUAD4   38      2       87      85      86      88
CQUAD4   39      2       89      87      88      90
CQUAD4   40      2       91      89      90      92
CQUAD4   41      2       93      91      92      94
CQUAD4   42      2       64      93      94      66
CQUAD4   43      2       103     102     96      97
CQUAD4   44      2       104     103     97      98
CQUAD4   45      2       105     104     98      99
CQUAD4   46      2       58      105     99      57
$ ... 18 like lines cut
CTRIA3   65      2       148     147     143
CQUAD4   66      2       143     144     149     148
CQUAD4   67      2       144     145     150     149
CQUAD4   68      2       145     62      60      150
CTRIA3   69      2       154     156     155
CQUAD4   70      2       156     158     157     155
CQUAD4   71      2       158     160     159     157
CQUAD4   72      2       160     60      59      159
CQUAD4   73      2       166     8       161     162
CQUAD4   74      2       167     166     162     163
CQUAD4   75      2       168     167     163     164
CQUAD4   76      2       169     168     164     165
CQUAD4   77      2       61      169     165     59
CQUAD4   78      2       175     174     42      170
CQUAD4   79      2       176     175     170     171
CQUAD4   80      2       177     176     171     172
CQUAD4   81      2       178     177     172     173
CQUAD4   82      2       62      178     173     61
CQUAD4   83      2       181     182     186     185
CQUAD4   84      2       182     183     187     186
CQUAD4   85      2       183     64      63      187
CQUAD4   86      2       189     190     195     194
CQUAD4   87      2       190     191     196     195
CQUAD4   88      2       191     63      65      196
CTRIA3   89      2       152     154     153
CTRIA3   90      2       155     153     154
CTRIA3   91      2       10      152     151
CTRIA3   92      2       153     151     152
CTRIA3   93      2       142     143     147
CTRIA3   94      2       147     146     142
CTRIA3   95      2       141     142     146
CTRIA3   96      2       146     40      141
CTRIA3   97      2       180     181     185
CTRIA3   98      2       185     184     180
CTRIA3   99      2       179     180     184
CTRIA3   100     2       184     44      179
CTRIA3   101     2       188     189     193
CTRIA3   102     2       194     193     189
CTRIA3   103     2       6       188     192
CTRIA3   104     2       193     192     188
CTRIA3   105     2       38      95      100
CTRIA3   106     2       101     100     95
CTRIA3   107     2       95      96      101
CTRIA3   108     2       102     101     96
$ ... 4 like lines cut
CQUAD4   114     2       192     197     213     212
CQUAD4   115     2       197     198     214     213
CQUAD4   116     2       198     199     215     214
CQUAD4   117     2       199     200     216     215
CQUAD4   118     2       200     201     217     216
CQUAD4   119     2       201     202     218     217
CQUAD4   120     2       202     203     219     218
CQUAD4   121     2       203     204     220     219
CQUAD4   122     2       204     205     221     220
CQUAD4   123     2       205     206     222     221
CQUAD4   124     2       206     207     223     222
CQUAD4   125     2       207     208     224     223
CQUAD4   126     2       208     209     225     224
CQUAD4   127     2       209     210     226     225
CQUAD4   128     2       210     211     227     226
CQUAD4   129     2       211     1       2       227
CQUAD4   131     2       228     230     229     179
CQUAD4   132     2       230     232     231     229
CQUAD4   133     2       232     234     233     231
CQUAD4   134     2       234     236     235     233
$ ... 98 like lines cut
CTRIA3   279     2       524     523     519
CQUAD4   280     2       519     520     525     524
CQUAD4   281     2       520     521     526     525
CQUAD4   282     2       521     438     436     526
CTRIA3   283     2       530     532     531
CQUAD4   284     2       532     534     533     531
CQUAD4   285     2       534     536     535     533
CQUAD4   286     2       536     436     435     535
CQUAD4   287     2       542     41      270     538
CQUAD4   288     2       543     542     538     539
CQUAD4   289     2       544     543     539     540
CQUAD4   290     2       545     544     540     541
CQUAD4   291     2       437     545     541     435
CQUAD4   292     2       551     550     418     546
CQUAD4   293     2       552     551     546     547
CQUAD4   294     2       553     552     547     548
CQUAD4   295     2       554     553     548     549
CQUAD4   296     2       438     554     549     437
CQUAD4   297     2       557     558     562     561
CQUAD4   298     2       558     559     563     562
CQUAD4   299     2       559     440     439     563
CQUAD4   300     2       565     566     571     570
CQUAD4   301     2       566     567     572     571
CQUAD4   302     2       567     439     441     572
CTRIA3   303     2       528     530     529
CTRIA3   304     2       531     529     530
CTRIA3   305     2       39      528     282
CTRIA3   306     2       529     282     528
CTRIA3   307     2       518     519     523
CTRIA3   308     2       523     522     518
CTRIA3   309     2       517     518     522
CTRIA3   310     2       522     416     517
CTRIA3   311     2       556     557     561
CTRIA3   312     2       561     560     556
CTRIA3   313     2       555     556     560
CTRIA3   314     2       560     420     555
CTRIA3   315     2       564     565     569
CTRIA3   316     2       570     569     565
CTRIA3   317     2       43      564     228
CTRIA3   318     2       569     228     564
CTRIA3   319     2       414     471     476
CTRIA3   320     2       477     476     471
CTRIA3   321     2       471     472     477
CTRIA3   322     2       478     477     472
$ ... 4 like lines cut
CQUAD4   345     2       604     606     605     555
CQUAD4   346     2       606     608     607     605
CQUAD4   347     2       608     610     609     607
CQUAD4   348     2       610     612     611     609
CQUAD4   349     2       612     614     613     611
CQUAD4   350     2       614     616     615     613
CQUAD4   351     2       616     618     617     615
CQUAD4   352     2       618     620     619     617
CQUAD4   353     2       620     622     621     619
CQUAD4   354     2       622     624     623     621
CQUAD4   355     2       624     626     625     623
CQUAD4   356     2       626     628     627     625
CQUAD4   357     2       628     630     629     627
CQUAD4   358     2       630     632     631     629
CQUAD4   359     2       632     634     633     631
CQUAD4   360     2       634     422     421     633
CQUAD4   362     2       647     646     550     635
CQUAD4   363     2       648     647     635     636
CQUAD4   364     2       649     648     636     637
CQUAD4   365     2       650     649     637     638
$ ... 58 like lines cut
CTRIA3   493     2       900     899     895
CQUAD4   494     2       895     896     901     900
CQUAD4   495     2       896     897     902     901
CQUAD4   496     2       897     814     812     902
CTRIA3   497     2       906     908     907
CQUAD4   498     2       908     910     909     907
CQUAD4   499     2       910     912     911     909
CQUAD4   500     2       912     812     811     911
CQUAD4   501     2       918     417     646     914
CQUAD4   502     2       919     918     914     915
CQUAD4   503     2       920     919     915     916
CQUAD4   504     2       921     920     916     917
CQUAD4   505     2       813     921     917     811
CQUAD4   506     2       927     926     794     922
CQUAD4   507     2       928     927     922     923
CQUAD4   508     2       929     928     923     924
CQUAD4   509     2       930     929     924     925
CQUAD4   510     2       814     930     925     813
CQUAD4   511     2       933     934     938     937
CQUAD4   512     2       934     935     939     938
CQUAD4   513     2       935     816     815     939
CQUAD4   514     2       941     942     947     946
CQUAD4   515     2       942     943     948     947
CQUAD4   516     2       943     815     817     948
CTRIA3   517     2       904     906     905
CTRIA3   518     2       907     905     906
CTRIA3   519     2       415     904     658
CTRIA3   520     2       905     658     904
CTRIA3   521     2       894     895     899
CTRIA3   522     2       899     898     894
CTRIA3   523     2       893     894     898
CTRIA3   524     2       898     792     893
CTRIA3   525     2       932     933     937
CTRIA3   526     2       937     936     932
CTRIA3   527     2       931     932     936
CTRIA3   528     2       936     796     931
CTRIA3   529     2       940     941     945
CTRIA3   530     2       946     945     941
CTRIA3   531     2       419     940     604
CTRIA3   532     2       945     604     940
CTRIA3   533     2       790     847     852
CTRIA3   534     2       853     852     847
CTRIA3   535     2       847     848     853
CTRIA3   536     2       854     853     848
$ ... 4 like lines cut
CQUAD4   559     2       980     982     981     931
CQUAD4   560     2       982     984     983     981
CQUAD4   561     2       984     986     985     983
CQUAD4   562     2       986     988     987     985
CQUAD4   563     2       988     990     989     987
CQUAD4   564     2       990     992     991     989
CQUAD4   565     2       992     994     993     991
CQUAD4   566     2       994     996     995     993
CQUAD4   567     2       996     998     997     995
CQUAD4   568     2       998     1000    999     997
CQUAD4   569     2       1000    1002    1001    999
CQUAD4   570     2       1002    1004    1003    1001
CQUAD4   571     2       1004    1006    1005    1003
CQUAD4   572     2       1006    1008    1007    1005
CQUAD4   573     2       1008    1010    1009    1007
CQUAD4   574     2       1010    798     797     1009
CQUAD4   576     2       1023    1022    926     1011
CQUAD4   577     2       1024    1023    1011    1012
CQUAD4   578     2       1025    1024    1012    1013
CQUAD4   579     2       1026    1025    1013    1014
$ ... 58 like lines cut
CTRIA3   707     2       1276    1275    1271
CQUAD4   708     2       1271    1272    1277    1276
CQUAD4   709     2       1272    1273    1278    1277
CQUAD4   710     2       1273    1190    1188    1278
CTRIA3   711     2       1282    1284    1283
CQUAD4   712     2       1284    1286    1285    1283
CQUAD4   713     2       1286    1288    1287    1285
CQUAD4   714     2       1288    1188    1187    1287
CQUAD4   715     2       1294    793     1022    1290
CQUAD4   716     2       1295    1294    1290    1291
CQUAD4   717     2       1296    1295    1291    1292
CQUAD4   718     2       1297    1296    1292    1293
CQUAD4   719     2       1189    1297    1293    1187
CQUAD4   720     2       1303    1302    1170    1298
CQUAD4   721     2       1304    1303    1298    1299
CQUAD4   722     2       1305    1304    1299    1300
CQUAD4   723     2       1306    1305    1300    1301
CQUAD4   724     2       1190    1306    1301    1189
CQUAD4   725     2       1309    1310    1314    1313
CQUAD4   726     2       1310    1311    1315    1314
CQUAD4   727     2       1311    1192    1191    1315
CQUAD4   728     2       1317    1318    1323    1322
CQUAD4   729     2       1318    1319    1324    1323
CQUAD4   730     2       1319    1191    1193    1324
CTRIA3   731     2       1280    1282    1281
CTRIA3   732     2       1283    1281    1282
CTRIA3   733     2       791     1280    1034
CTRIA3   734     2       1281    1034    1280
CTRIA3   735     2       1270    1271    1275
CTRIA3   736     2       1275    1274    1270
CTRIA3   737     2       1269    1270    1274
CTRIA3   738     2       1274    1168    1269
CTRIA3   739     2       1308    1309    1313
CTRIA3   740     2       1313    1312    1308
CTRIA3   741     2       1307    1308    1312
CTRIA3   742     2       1312    1172    1307
CTRIA3   743     2       1316    1317    1321
CTRIA3   744     2       1322    1321    1317
CTRIA3   745     2       795     1316    980
CTRIA3   746     2       1321    980     1316
CTRIA3   747     2       1166    1223    1228
CTRIA3   748     2       1229    1228    1223
CTRIA3   749     2       1223    1224    1229
CTRIA3   750     2       1230    1229    1224
$ ... 4 like lines cut
CQUAD4   773     2       1356    1358    1357    1307
CQUAD4   774     2       1358    1360    1359    1357
CQUAD4   775     2       1360    1362    1361    1359
CQUAD4   776     2       1362    1364    1363    1361
CQUAD4   777     2       1364    1366    1365    1363
CQUAD4   778     2       1366    1368    1367    1365
CQUAD4   779     2       1368    1370    1369    1367
CQUAD4   780     2       1370    1372    1371    1369
CQUAD4   781     2       1372    1374    1373    1371
CQUAD4   782     2       1374    1376    1375    1373
CQUAD4   783     2       1376    1378    1377    1375
CQUAD4   784     2       1378    1380    1379    1377
CQUAD4   785     2       1380    1382    1381    1379
CQUAD4   786     2       1382    1384    1383    1381
CQUAD4   787     2       1384    1386    1385    1383
CQUAD4   788     2       1386    1174    1173    1385
CQUAD4   790     2       1399    1398    1302    1387
CQUAD4   791     2       1400    1399    1387    1388
CQUAD4   792     2       1401    1400    1388    1389
CQUAD4   793     2       1402    1401    1389    1390
$ ... 58 like lines cut
CTRIA3   921     2       1652    1651    1647
CQUAD4   922     2       1647    1648    1653    1652
CQUAD4   923     2       1648    1649    1654    1653
CQUAD4   924     2       1649    1566    1564    1654
CTRIA3   925     2       1658    1660    1659
CQUAD4   926     2       1660    1662    1661    1659
CQUAD4   927     2       1662    1664    1663    1661
CQUAD4   928     2       1664    1564    1563    1663
CQUAD4   929     2       1670    1169    1398    1666
CQUAD4   930     2       1671    1670    1666    1667
CQUAD4   931     2       1672    1671    1667    1668
CQUAD4   932     2       1673    1672    1668    1669
CQUAD4   933     2       1565    1673    1669    1563
CQUAD4   934     2       1679    1678    1546    1674
CQUAD4   935     2       1680    1679    1674    1675
CQUAD4   936     2       1681    1680    1675    1676
CQUAD4   937     2       1682    1681    1676    1677
CQUAD4   938     2       1566    1682    1677    1565
CQUAD4   939     2       1685    1686    1690    1689
CQUAD4   940     2       1686    1687    1691    1690
CQUAD4   941     2       1687    1568    1567    1691
CQUAD4   942     2       1693    1694    1699    1698
CQUAD4   943     2       1694    1695    1700    1699
CQUAD4   944     2       1695    1567    1569    1700
CTRIA3   945     2       1656    1658    1657
CTRIA3   946     2       1659    1657    1658
CTRIA3   947     2       1167    1656    1410
CTRIA3   948     2       1657    1410    1656
CTRIA3   949     2       1646    1647    1651
CTRIA3   950     2       1651    1650    1646
CTRIA3   951     2       1645    1646    1650
CTRIA3   952     2       1650    1544    1645
CTRIA3   953     2       1684    1685    1689
CTRIA3   954     2       1689    1688    1684
CTRIA3   955     2       1683    1684    1688
CTRIA3   956     2       1688    1548    1683
CTRIA3   957     2       1692    1693    1697
CTRIA3   958     2       1698    1697    1693
CTRIA3   959     2       1171    1692    1356
CTRIA3   960     2       1697    1356    1692
CTRIA3   961     2       1542    1599    1604
CTRIA3   962     2       1605    1604    1599
CTRIA3   963     2       1599    1600    1605
CTRIA3   964     2       1606    1605    1600
$ ... 4 like lines cut
CQUAD4   987     2       1732    1734    1733    1683
CQUAD4   988     2       1734    1736    1735    1733
CQUAD4   989     2       1736    1738    1737    1735
CQUAD4   990     2       1738    1740    1739    1737
CQUAD4   991     2       1740    1742    1741    1739
CQUAD4   992     2       1742    1744    1743    1741
CQUAD4   993     2       1744    1746    1745    1743
CQUAD4   994     2       1746    1748    1747    1745
CQUAD4   995     2       1748    1750    1749    1747
CQUAD4   996     2       1750    1752    1751    1749
CQUAD4   997     2       1752    1754    1753    1751
CQUAD4   998     2       1754    1756    1755    1753
CQUAD4   999     2       1756    1758    1757    1755
CQUAD4   1000    2       1758    1760    1759    1757
CQUAD4   1001    2       1760    1762    1761    1759
CQUAD4   1002    2       1762    1550    1549    1761
CQUAD4   1004    2       1775    1774    1678    1763
CQUAD4   1005    2       1776    1775    1763    1764
CQUAD4   1006    2       1777    1776    1764    1765
CQUAD4   1007    2       1778    1777    1765    1766
$ ... 58 like lines cut
CTRIA3   1135    2       2028    2027    2023
CQUAD4   1136    2       2023    2024    2029    2028
CQUAD4   1137    2       2024    2025    2030    2029
CQUAD4   1138    2       2025    1942    1940    2030
CTRIA3   1139    2       2034    2036    2035
CQUAD4   1140    2       2036    2038    2037    2035
CQUAD4   1141    2       2038    2040    2039    2037
CQUAD4   1142    2       2040    1940    1939    2039
CQUAD4   1143    2       2046    1545    1774    2042
CQUAD4   1144    2       2047    2046    2042    2043
CQUAD4   1145    2       2048    2047    2043    2044
CQUAD4   1146    2       2049    2048    2044    2045
CQUAD4   1147    2       1941    2049    2045    1939
CQUAD4   1148    2       2055    2054    1922    2050
CQUAD4   1149    2       2056    2055    2050    2051
CQUAD4   1150    2       2057    2056    2051    2052
CQUAD4   1151    2       2058    2057    2052    2053
CQUAD4   1152    2       1942    2058    2053    1941
CQUAD4   1153    2       2061    2062    2066    2065
CQUAD4   1154    2       2062    2063    2067    2066
CQUAD4   1155    2       2063    1944    1943    2067
CQUAD4   1156    2       2069    2070    2075    2074
CQUAD4   1157    2       2070    2071    2076    2075
CQUAD4   1158    2       2071    1943    1945    2076
CTRIA3   1159    2       2032    2034    2033
CTRIA3   1160    2       2035    2033    2034
CTRIA3   1161    2       1543    2032    1786
CTRIA3   1162    2       2033    1786    2032
CTRIA3   1163    2       2022    2023    2027
CTRIA3   1164    2       2027    2026    2022
CTRIA3   1165    2       2021    2022    2026
CTRIA3   1166    2       2026    1920    2021
CTRIA3   1167    2       2060    2061    2065
CTRIA3   1168    2       2065    2064    2060
CTRIA3   1169    2       2059    2060    2064
CTRIA3   1170    2       2064    1924    2059
CTRIA3   1171    2       2068    2069    2073
CTRIA3   1172    2       2074    2073    2069
CTRIA3   1173    2       1547    2068    1732
CTRIA3   1174    2       2073    1732    2068
CTRIA3   1175    2       1918    1975    1980
CTRIA3   1176    2       1981    1980    1975
CTRIA3   1177    2       1975    1976    1981
CTRIA3   1178    2       1982    1981    1976
$ ... 4 like lines cut
CQUAD4   1201    2       2108    2110    2109    2059
CQUAD4   1202    2       2110    2112    2111    2109
CQUAD4   1203    2       2112    2114    2113    2111
CQUAD4   1204    2       2114    2116    2115    2113
CQUAD4   1205    2       2116    2118    2117    2115
CQUAD4   1206    2       2118    2120    2119    2117
CQUAD4   1207    2       2120    2122    2121    2119
CQUAD4   1208    2       2122    2124    2123    2121
CQUAD4   1209    2       2124    2126    2125    2123
CQUAD4   1210    2       2126    2128    2127    2125
CQUAD4   1211    2       2128    2130    2129    2127
CQUAD4   1212    2       2130    2132    2131    2129
CQUAD4   1213    2       2132    2134    2133    2131
CQUAD4   1214    2       2134    2136    2135    2133
CQUAD4   1215    2       2136    2138    2137    2135
CQUAD4   1216    2       2138    1926    1925    2137
CQUAD4   1218    2       2151    2150    2054    2139
CQUAD4   1219    2       2152    2151    2139    2140
CQUAD4   1220    2       2153    2152    2140    2141
CQUAD4   1221    2       2154    2153    2141    2142
$ ... 58 like lines cut
CTRIA3   1349    2       2404    2403    2399
CQUAD4   1350    2       2399    2400    2405    2404
CQUAD4   1351    2       2400    2401    2406    2405
CQUAD4   1352    2       2401    2318    2316    2406
CTRIA3   1353    2       2410    2412    2411
CQUAD4   1354    2       2412    2414    2413    2411
CQUAD4   1355    2       2414    2416    2415    2413
CQUAD4   1356    2       2416    2316    2315    2415
CQUAD4   1357    2       2422    1921    2150    2418
CQUAD4   1358    2       2423    2422    2418    2419
CQUAD4   1359    2       2424    2423    2419    2420
CQUAD4   1360    2       2425    2424    2420    2421
CQUAD4   1361    2       2317    2425    2421    2315
CQUAD4   1362    2       2431    2430    2298    2426
CQUAD4   1363    2       2432    2431    2426    2427
CQUAD4   1364    2       2433    2432    2427    2428
CQUAD4   1365    2       2434    2433    2428    2429
CQUAD4   1366    2       2318    2434    2429    2317
CQUAD4   1367    2       2437    2438    2442    2441
CQUAD4   1368    2       2438    2439    2443    2442
CQUAD4   1369    2       2439    2320    2319    2443
CQUAD4   1370    2       2445    2446    2451    2450
CQUAD4   1371    2       2446    2447    2452    2451
CQUAD4   1372    2       2447    2319    2321    2452
CTRIA3   1373    2       2408    2410    2409
CTRIA3   1374    2       2411    2409    2410
CTRIA3   1375    2       1919    2408    2162
CTRIA3   1376    2       2409    2162    2408
CTRIA3   1377    2       2398    2399    2403
CTRIA3   1378    2       2403    2402    2398
CTRIA3   1379    2       2397    2398    2402
CTRIA3   1380    2       2402    2296    2397
CTRIA3   1381    2       2436    2437    2441
CTRIA3   1382    2       2441    2440    2436
CTRIA3   1383    2       2435    2436    2440
CTRIA3   1384    2       2440    2300    2435
CTRIA3   1385    2       2444    2445    2449
CTRIA3   1386    2       2450    2449    2445
CTRIA3   1387    2       1923    2444    2108
CTRIA3   1388    2       2449    2108    2444
CTRIA3   1389    2       2294    2351    2356
CTRIA3   1390    2       2357    2356    2351
CTRIA3   1391    2       2351    2352    2357
CTRIA3   1392    2       2358    2357    2352
$ ... 4 like lines cut
CQUAD4   1415    2       2484    2486    2485    2435
CQUAD4   1416    2       2486    2488    2487    2485
CQUAD4   1417    2       2488    2490    2489    2487
CQUAD4   1418    2       2490    2492    2491    2489
CQUAD4   1419    2       2492    2494    2493    2491
CQUAD4   1420    2       2494    2496    2495    2493
CQUAD4   1421    2       2496    2498    2497    2495
CQUAD4   1422    2       2498    2500    2499    2497
CQUAD4   1423    2       2500    2502    2501    2499
CQUAD4   1424    2       2502    2504    2503    2501
CQUAD4   1425    2       2504    2506    2505    2503
CQUAD4   1426    2       2506    2508    2507    2505
CQUAD4   1427    2       2508    2510    2509    2507
CQUAD4   1428    2       2510    2512    2511    2509
CQUAD4   1429    2       2512    2514    2513    2511
CQUAD4   1430    2       2514    2302    2301    2513
CQUAD4   1432    2       2527    2526    2430    2515
CQUAD4   1433    2       2528    2527    2515    2516
CQUAD4   1434    2       2529    2528    2516    2517
CQUAD4   1435    2       2530    2529    2517    2518
$ ... 58 like lines cut
CTRIA3   1563    2       2780    2779    2775
CQUAD4   1564    2       2775    2776    2781    2780
CQUAD4   1565    2       2776    2777    2782    2781
CQUAD4   1566    2       2777    2694    2692    2782
CTRIA3   1567    2       2786    2788    2787
CQUAD4   1568    2       2788    2790    2789    2787
CQUAD4   1569    2       2790    2792    2791    2789
CQUAD4   1570    2       2792    2692    2691    2791
CQUAD4   1571    2       2798    2297    2526    2794
CQUAD4   1572    2       2799    2798    2794    2795
CQUAD4   1573    2       2800    2799    2795    2796
CQUAD4   1574    2       2801    2800    2796    2797
CQUAD4   1575    2       2693    2801    2797    2691
CQUAD4   1576    2       2807    2806    2674    2802
CQUAD4   1577    2       2808    2807    2802    2803
CQUAD4   1578    2       2809    2808    2803    2804
CQUAD4   1579    2       2810    2809    2804    2805
CQUAD4   1580    2       2694    2810    2805    2693
CQUAD4   1581    2       2813    2814    2818    2817
CQUAD4   1582    2       2814    2815    2819    2818
CQUAD4   1583    2       2815    2696    2695    2819
CQUAD4   1584    2       2821    2822    2827    2826
CQUAD4   1585    2       2822    2823    2828    2827
CQUAD4   1586    2       2823    2695    2697    2828
CTRIA3   1587    2       2784    2786    2785
CTRIA3   1588    2       2787    2785    2786
CTRIA3   1589    2       2295    2784    2538
CTRIA3   1590    2       2785    2538    2784
CTRIA3   1591    2       2774    2775    2779
CTRIA3   1592    2       2779    2778    2774
CTRIA3   1593    2       2773    2774    2778
CTRIA3   1594    2       2778    2672    2773
CTRIA3   1595    2       2812    2813    2817
CTRIA3   1596    2       2817    2816    2812
CTRIA3   1597    2       2811    2812    2816
CTRIA3   1598    2       2816    2676    2811
CTRIA3   1599    2       2820    2821    2825
CTRIA3   1600    2       2826    2825    2821
CTRIA3   1601    2       2299    2820    2484
CTRIA3   1602    2       2825    2484    2820
CTRIA3   1603    2       2670    2727    2732
CTRIA3   1604    2       2733    2732    2727
CTRIA3   1605    2       2727    2728    2733
CTRIA3   1606    2       2734    2733    2728
$ ... 4 like lines cut
CQUAD4   1629    2       2860    2862    2861    2811
CQUAD4   1630    2       2862    2864    2863    2861
CQUAD4   1631    2       2864    2866    2865    2863
CQUAD4   1632    2       2866    2868    2867    2865
CQUAD4   1633    2       2868    2870    2869    2867
CQUAD4   1634    2       2870    2872    2871    2869
CQUAD4   1635    2       2872    2874    2873    2871
CQUAD4   1636    2       2874    2876    2875    2873
CQUAD4   1637    2       2876    2878    2877    2875
CQUAD4   1638    2       2878    2880    2879    2877
CQUAD4   1639    2       2880    2882    2881    2879
CQUAD4   1640    2       2882    2884    2883    2881
CQUAD4   1641    2       2884    2886    2885    2883
CQUAD4   1642    2       2886    2888    2887    2885
CQUAD4   1643    2       2888    2890    2889    2887
CQUAD4   1644    2       2890    2678    2677    2889
CQUAD4   1646    2       2903    2902    2806    2891
CQUAD4   1647    2       2904    2903    2891    2892
CQUAD4   1648    2       2905    2904    2892    2893
CQUAD4   1649    2       2906    2905    2893    2894
$ ... 58 like lines cut
CTRIA3   1777    2       3156    3155    3151
CQUAD4   1778    2       3151    3152    3157    3156
CQUAD4   1779    2       3152    3153    3158    3157
CQUAD4   1780    2       3153    3070    3068    3158
CTRIA3   1781    2       3162    3164    3163
CQUAD4   1782    2       3164    3166    3165    3163
CQUAD4   1783    2       3166    3168    3167    3165
CQUAD4   1784    2       3168    3068    3067    3167
CQUAD4   1785    2       3174    2673    2902    3170
CQUAD4   1786    2       3175    3174    3170    3171
CQUAD4   1787    2       3176    3175    3171    3172
CQUAD4   1788    2       3177    3176    3172    3173
CQUAD4   1789    2       3069    3177    3173    3067
CQUAD4   1790    2       3183    3182    3050    3178
CQUAD4   1791    2       3184    3183    3178    3179
CQUAD4   1792    2       3185    3184    3179    3180
CQUAD4   1793    2       3186    3185    3180    3181
CQUAD4   1794    2       3070    3186    3181    3069
CQUAD4   1795    2       3189    3190    3194    3193
CQUAD4   1796    2       3190    3191    3195    3194
CQUAD4   1797    2       3191    3072    3071    3195
CQUAD4   1798    2       3197    3198    3203    3202
CQUAD4   1799    2       3198    3199    3204    3203
CQUAD4   1800    2       3199    3071    3073    3204
CTRIA3   1801    2       3160    3162    3161
CTRIA3   1802    2       3163    3161    3162
CTRIA3   1803    2       2671    3160    2914
CTRIA3   1804    2       3161    2914    3160
CTRIA3   1805    2       3150    3151    3155
CTRIA3   1806    2       3155    3154    3150
CTRIA3   1807    2       3149    3150    3154
CTRIA3   1808    2       3154    3048    3149
CTRIA3   1809    2       3188    3189    3193
CTRIA3   1810    2       3193    3192    3188
CTRIA3   1811    2       3187    3188    3192
CTRIA3   1812    2       3192    3052    3187
CTRIA3   1813    2       3196    3197    3201
CTRIA3   1814    2       3202    3201    3197
CTRIA3   1815    2       2675    3196    2860
CTRIA3   1816    2       3201    2860    3196
CTRIA3   1817    2       3046    3103    3108
CTRIA3   1818    2       3109    3108    3103
CTRIA3   1819    2       3103    3104    3109
CTRIA3   1820    2       3110    3109    3104
$ ... 4 like lines cut
CQUAD4   1843    2       3236    3238    3237    3187
CQUAD4   1844    2       3238    3240    3239    3237
CQUAD4   1845    2       3240    3242    3241    3239
CQUAD4   1846    2       3242    3244    3243    3241
CQUAD4   1847    2       3244    3246    3245    3243
CQUAD4   1848    2       3246    3248    3247    3245
CQUAD4   1849    2       3248    3250    3249    3247
CQUAD4   1850    2       3250    3252    3251    3249
CQUAD4   1851    2       3252    3254    3253    3251
CQUAD4   1852    2       3254    3256    3255    3253
CQUAD4   1853    2       3256    3258    3257    3255
CQUAD4   1854    2       3258    3260    3259    3257
CQUAD4   1855    2       3260    3262    3261    3259
CQUAD4   1856    2       3262    3264    3263    3261
CQUAD4   1857    2       3264    3266    3265    3263
CQUAD4   1858    2       3266    3054    3053    3265
CQUAD4   1860    2       3279    3278    3182    3267
CQUAD4   1861    2       3280    3279    3267    3268
CQUAD4   1862    2       3281    3280    3268    3269
CQUAD4   1863    2       3282    3281    3269    3270
$ ... 58 like lines cut
CTRIA3   1991    2       3532    3531    3527
CQUAD4   1992    2       3527    3528    3533    3532
CQUAD4   1993    2       3528    3529    3534    3533
CQUAD4   1994    2       3529    3446    3444    3534
CTRIA3   1995    2       3538    3540    3539
CQUAD4   1996    2       3540    3542    3541    3539
CQUAD4   1997    2       3542    3544    3543    3541
CQUAD4   1998    2       3544    3444    3443    3543
CQUAD4   1999    2       3550    3049    3278    3546
CQUAD4   2000    2       3551    3550    3546    3547
CQUAD4   2001    2       3552    3551    3547    3548
CQUAD4   2002    2       3553    3552    3548    3549
CQUAD4   2003    2       3445    3553    3549    3443
CQUAD4   2004    2       3559    3558    3426    3554
CQUAD4   2005    2       3560    3559    3554    3555
CQUAD4   2006    2       3561    3560    3555    3556
CQUAD4   2007    2       3562    3561    3556    3557
CQUAD4   2008    2       3446    3562    3557    3445
CQUAD4   2009    2       3565    3566    3570    3569
CQUAD4   2010    2       3566    3567    3571    3570
CQUAD4   2011    2       3567    3448    3447    3571
CQUAD4   2012    2       3573    3574    3579    3578
CQUAD4   2013    2       3574    3575    3580    3579
CQUAD4   2014    2       3575    3447    3449    3580
CTRIA3   2015    2       3536    3538    3537
CTRIA3   2016    2       3539    3537    3538
CTRIA3   2017    2       3047    3536    3290
CTRIA3   2018    2       3537    3290    3536
CTRIA3   2019    2       3526    3527    3531
CTRIA3   2020    2       3531    3530    3526
CTRIA3   2021    2       3525    3526    3530
CTRIA3   2022    2       3530    3424    3525
CTRIA3   2023    2       3564    3565    3569
CTRIA3   2024    2       3569    3568    3564
CTRIA3   2025    2       3563    3564    3568
CTRIA3   2026    2       3568    3428    3563
CTRIA3   2027    2       3572    3573    3577
CTRIA3   2028    2       3578    3577    3573
CTRIA3   2029    2       3051    3572    3236
CTRIA3   2030    2       3577    3236    3572
CTRIA3   2031    2       3422    3479    3484
CTRIA3   2032    2       3485    3484    3479
CTRIA3   2033    2       3479    3480    3485
CTRIA3   2034    2       3486    3485    3480
$ ... 4 like lines cut
CQUAD4   2057    2       3612    3614    3613    3563
CQUAD4   2058    2       3614    3616    3615    3613
CQUAD4   2059    2       3616    3618    3617    3615
CQUAD4   2060    2       3618    3620    3619    3617
CQUAD4   2061    2       3620    3622    3621    3619
CQUAD4   2062    2       3622    3624    3623    3621
CQUAD4   2063    2       3624    3626    3625    3623
CQUAD4   2064    2       3626    3628    3627    3625
CQUAD4   2065    2       3628    3630    3629    3627
CQUAD4   2066    2       3630    3632    3631    3629
CQUAD4   2067    2       3632    3634    3633    3631
CQUAD4   2068    2       3634    3636    3635    3633
CQUAD4   2069    2       3636    3638    3637    3635
CQUAD4   2070    2       3638    3640    3639    3637
CQUAD4   2071    2       3640    3642    3641    3639
CQUAD4   2072    2       3642    3430    3429    3641
CQUAD4   2074    2       3655    3654    3558    3643
CQUAD4   2075    2       3656    3655    3643    3644
CQUAD4   2076    2       3657    3656    3644    3645
CQUAD4   2077    2       3658    3657    3645    3646
$ ... 58 like lines cut
CTRIA3   2205    2       3908    3907    3903
CQUAD4   2206    2       3903    3904    3909    3908
CQUAD4   2207    2       3904    3905    3910    3909
CQUAD4   2208    2       3905    3822    3820    3910
CTRIA3   2209    2       3914    3916    3915
CQUAD4   2210    2       3916    3918    3917    3915
CQUAD4   2211    2       3918    3920    3919    3917
CQUAD4   2212    2       3920    3820    3819    3919
CQUAD4   2213    2       3926    3425    3654    3922
CQUAD4   2214    2       3927    3926    3922    3923
CQUAD4   2215    2       3928    3927    3923    3924
CQUAD4   2216    2       3929    3928    3924    3925
CQUAD4   2217    2       3821    3929    3925    3819
CQUAD4   2218    2       3935    3934    3802    3930
CQUAD4   2219    2       3936    3935    3930    3931
CQUAD4   2220    2       3937    3936    3931    3932
CQUAD4   2221    2       3938    3937    3932    3933
CQUAD4   2222    2       3822    3938    3933    3821
CQUAD4   2223    2       3941    3942    3946    3945
CQUAD4   2224    2       3942    3943    3947    3946
CQUAD4   2225    2       3943    3824    3823    3947
CQUAD4   2226    2       3949    3950    3955    3954
CQUAD4   2227    2       3950    3951    3956    3955
CQUAD4   2228    2       3951    3823    3825    3956
CTRIA3   2229    2       3912    3914    3913
CTRIA3   2230    2       3915    3913    3914
CTRIA3   2231    2       3423    3912    3666
CTRIA3   2232    2       3913    3666    3912
CTRIA3   2233    2       3902    3903    3907
CTRIA3   2234    2       3907    3906    3902
CTRIA3   2235    2       3901    3902    3906
CTRIA3   2236    2       3906    3800    3901
CTRIA3   2237    2       3940    3941    3945
CTRIA3   2238    2       3945    3944    3940
CTRIA3   2239    2       3939    3940    3944
CTRIA3   2240    2       3944    3804    3939
CTRIA3   2241    2       3948    3949    3953
CTRIA3   2242    2       3954    3953    3949
CTRIA3   2243    2       3427    3948    3612
CTRIA3   2244    2       3953    3612    3948
CTRIA3   2245    2       3798    3855    3860
CTRIA3   2246    2       3861    3860    3855
CTRIA3   2247    2       3855    3856    3861
CTRIA3   2248    2       3862    3861    3856
$ ... 4 like lines cut
CQUAD4   2271    2       3988    3990    3989    3939
CQUAD4   2272    2       3990    3992    3991    3989
CQUAD4   2273    2       3992    3994    3993    3991
CQUAD4   2274    2       3994    3996    3995    3993
CQUAD4   2275    2       3996    3998    3997    3995
CQUAD4   2276    2       3998    4000    3999    3997
CQUAD4   2277    2       4000    4002    4001    3999
CQUAD4   2278    2       4002    4004    4003    4001
CQUAD4   2279    2       4004    4006    4005    4003
CQUAD4   2280    2       4006    4008    4007    4005
CQUAD4   2281    2       4008    4010    4009    4007
CQUAD4   2282    2       4010    4012    4011    4009
CQUAD4   2283    2       4012    4014    4013    4011
CQUAD4   2284    2       4014    4016    4015    4013
CQUAD4   2285    2       4016    4018    4017    4015
CQUAD4   2286    2       4018    3806    3805    4017
CQUAD4   2288    2       4031    4030    3934    4019
CQUAD4   2289    2       4032    4031    4019    4020
CQUAD4   2290    2       4033    4032    4020    4021
CQUAD4   2291    2       4034    4033    4021    4022
$ ... 58 like lines cut
CTRIA3   2419    2       4284    4283    4279
CQUAD4   2420    2       4279    4280    4285    4284
CQUAD4   2421    2       4280    4281    4286    4285
CQUAD4   2422    2       4281    4198    4196    4286
CTRIA3   2423    2       4290    4292    4291
CQUAD4   2424    2       4292    4294    4293    4291
CQUAD4   2425    2       4294    4296    4295    4293
CQUAD4   2426    2       4296    4196    4195    4295
CQUAD4   2427    2       4302    3801    4030    4298
CQUAD4   2428    2       4303    4302    4298    4299
CQUAD4   2429    2       4304    4303    4299    4300
CQUAD4   2430    2       4305    4304    4300    4301
CQUAD4   2431    2       4197    4305    4301    4195
CQUAD4   2432    2       4311    306     7       4306
CQUAD4   2433    2       4312    4311    4306    4307
CQUAD4   2434    2       4313    4312    4307    4308
CQUAD4   2435    2       4314    4313    4308    4309
CQUAD4   2436    2       4198    4314    4309    4197
CQUAD4   2437    2       4317    4318    4322    4321
CQUAD4   2438    2       4318    4319    4323    4322
CQUAD4   2439    2       4319    4200    4199    4323
CQUAD4   2440    2       4325    4326    4331    4330
CQUAD4   2441    2       4326    4327    4332    4331
CQUAD4   2442    2       4327    4199    4201    4332
CTRIA3   2443    2       4288    4290    4289
CTRIA3   2444    2       4291    4289    4290
CTRIA3   2445    2       3799    4288    4042
CTRIA3   2446    2       4289    4042    4288
CTRIA3   2447    2       4278    4279    4283
CTRIA3   2448    2       4283    4282    4278
CTRIA3   2449    2       294     4278    4282
CTRIA3   2450    2       4282    9       294
CTRIA3   2451    2       4316    4317    4321
CTRIA3   2452    2       4321    4320    4316
CTRIA3   2453    2       212     4316    4320
CTRIA3   2454    2       4320    5       212
CTRIA3   2455    2       4324    4325    4329
CTRIA3   2456    2       4330    4329    4325
CTRIA3   2457    2       3803    4324    3988
CTRIA3   2458    2       4329    3988    4324
CTRIA3   2459    2       12      4231    330
CTRIA3   2460    2       4237    330     4231
CTRIA3   2461    2       4231    4232    4237
CTRIA3   2462    2       4238    4237    4232
$ ... 4 like lines cut
$ Elements and Element Properties for region : Shell_T_0
$ Composite Property Reference Material: Laminate_T_0
$ Composite Material Description :
PCOMP    4                       .089    HILL
         4       .183    0.      YES     4       .183    0.      YES
         4       .183    0.      YES     4       .183    0.      YES
         4       .183    0.      YES     4       .183    0.      YES
         4       .183    0.      YES     4       .183    0.      YES
         4       .183    0.      YES     4       .183    0.      YES
$ Pset: "Shell_T_0" will be imported as: "pcomp.4"
CTRIA3   5       4       17      13      15
CTRIA3   7       4       31      25      24
CQUAD4   8       4       24      23      30      31
CQUAD4   9       4       23      22      29      30
CQUAD4   10      4       22      21      28      29
CQUAD4   11      4       21      20      27      28
CQUAD4   12      4       20      18      26      27
CTRIA3   13      4       19      26      18
CTRIA3   15      4       34      33      32
CQUAD4   20      4       53      54      50      49
CQUAD4   21      4       54      52      51      50
CQUAD4   201     4       40      353     359     38
CQUAD4   202     4       353     354     360     359
CQUAD4   203     4       354     355     361     360
CQUAD4   204     4       355     356     362     361
CQUAD4   205     4       356     357     363     362
CQUAD4   206     4       357     358     364     363
CQUAD4   207     4       358     10      11      364
CQUAD4   208     4       44      365     371     42
CQUAD4   209     4       365     366     372     371
CQUAD4   210     4       366     367     373     372
CQUAD4   211     4       367     368     374     373
CQUAD4   212     4       368     369     375     374
CQUAD4   213     4       369     370     376     375
CQUAD4   214     4       370     6       8       376
CTRIA3   219     4       393     35      36
CTRIA3   221     4       407     401     400
CQUAD4   222     4       400     399     406     407
CQUAD4   223     4       399     398     405     406
CQUAD4   224     4       398     397     404     405
CQUAD4   225     4       397     396     403     404
CQUAD4   226     4       396     394     402     403
CTRIA3   227     4       395     402     394
CTRIA3   229     4       410     409     408
CQUAD4   234     4       429     430     426     425
CQUAD4   235     4       430     428     427     426
CQUAD4   415     4       416     729     735     414
CQUAD4   416     4       729     730     736     735
CQUAD4   417     4       730     731     737     736
CQUAD4   418     4       731     732     738     737
CQUAD4   419     4       732     733     739     738
CQUAD4   420     4       733     734     740     739
CQUAD4   421     4       734     39      37      740
CQUAD4   422     4       420     741     747     418
CQUAD4   423     4       741     742     748     747
CQUAD4   424     4       742     743     749     748
CQUAD4   425     4       743     744     750     749
CQUAD4   426     4       744     745     751     750
CQUAD4   427     4       745     746     752     751
CQUAD4   428     4       746     43      41      752
CTRIA3   433     4       769     411     412
CTRIA3   435     4       783     777     776
CQUAD4   436     4       776     775     782     783
CQUAD4   437     4       775     774     781     782
CQUAD4   438     4       774     773     780     781
CQUAD4   439     4       773     772     779     780
CQUAD4   440     4       772     770     778     779
CTRIA3   441     4       771     778     770
CTRIA3   443     4       786     785     784
CQUAD4   448     4       805     806     802     801
CQUAD4   449     4       806     804     803     802
CQUAD4   629     4       792     1105    1111    790
CQUAD4   630     4       1105    1106    1112    1111
CQUAD4   631     4       1106    1107    1113    1112
CQUAD4   632     4       1107    1108    1114    1113
CQUAD4   633     4       1108    1109    1115    1114
CQUAD4   634     4       1109    1110    1116    1115
CQUAD4   635     4       1110    415     413     1116
CQUAD4   636     4       796     1117    1123    794
CQUAD4   637     4       1117    1118    1124    1123
CQUAD4   638     4       1118    1119    1125    1124
CQUAD4   639     4       1119    1120    1126    1125
CQUAD4   640     4       1120    1121    1127    1126
CQUAD4   641     4       1121    1122    1128    1127
CQUAD4   642     4       1122    419     417     1128
CTRIA3   647     4       1145    787     788
CTRIA3   649     4       1159    1153    1152
CQUAD4   650     4       1152    1151    1158    1159
CQUAD4   651     4       1151    1150    1157    1158
CQUAD4   652     4       1150    1149    1156    1157
CQUAD4   653     4       1149    1148    1155    1156
CQUAD4   654     4       1148    1146    1154    1155
CTRIA3   655     4       1147    1154    1146
CTRIA3   657     4       1162    1161    1160
CQUAD4   662     4       1181    1182    1178    1177
CQUAD4   663     4       1182    1180    1179    1178
CQUAD4   843     4       1168    1481    1487    1166
CQUAD4   844     4       1481    1482    1488    1487
CQUAD4   845     4       1482    1483    1489    1488
CQUAD4   846     4       1483    1484    1490    1489
CQUAD4   847     4       1484    1485    1491    1490
CQUAD4   848     4       1485    1486    1492    1491
CQUAD4   849     4       1486    791     789     1492
CQUAD4   850     4       1172    1493    1499    1170
CQUAD4   851     4       1493    1494    1500    1499
CQUAD4   852     4       1494    1495    1501    1500
CQUAD4   853     4       1495    1496    1502    1501
CQUAD4   854     4       1496    1497    1503    1502
CQUAD4   855     4       1497    1498    1504    1503
CQUAD4   856     4       1498    795     793     1504
CTRIA3   861     4       1521    1163    1164
CTRIA3   863     4       1535    1529    1528
CQUAD4   864     4       1528    1527    1534    1535
CQUAD4   865     4       1527    1526    1533    1534
CQUAD4   866     4       1526    1525    1532    1533
CQUAD4   867     4       1525    1524    1531    1532
CQUAD4   868     4       1524    1522    1530    1531
CTRIA3   869     4       1523    1530    1522
CTRIA3   871     4       1538    1537    1536
CQUAD4   876     4       1557    1558    1554    1553
CQUAD4   877     4       1558    1556    1555    1554
CQUAD4   1057    4       1544    1857    1863    1542
CQUAD4   1058    4       1857    1858    1864    1863
CQUAD4   1059    4       1858    1859    1865    1864
CQUAD4   1060    4       1859    1860    1866    1865
CQUAD4   1061    4       1860    1861    1867    1866
CQUAD4   1062    4       1861    1862    1868    1867
CQUAD4   1063    4       1862    1167    1165    1868
CQUAD4   1064    4       1548    1869    1875    1546
CQUAD4   1065    4       1869    1870    1876    1875
CQUAD4   1066    4       1870    1871    1877    1876
CQUAD4   1067    4       1871    1872    1878    1877
CQUAD4   1068    4       1872    1873    1879    1878
CQUAD4   1069    4       1873    1874    1880    1879
CQUAD4   1070    4       1874    1171    1169    1880
CTRIA3   1075    4       1897    1539    1540
CTRIA3   1077    4       1911    1905    1904
CQUAD4   1078    4       1904    1903    1910    1911
CQUAD4   1079    4       1903    1902    1909    1910
CQUAD4   1080    4       1902    1901    1908    1909
CQUAD4   1081    4       1901    1900    1907    1908
CQUAD4   1082    4       1900    1898    1906    1907
CTRIA3   1083    4       1899    1906    1898
CTRIA3   1085    4       1914    1913    1912
CQUAD4   1090    4       1933    1934    1930    1929
CQUAD4   1091    4       1934    1932    1931    1930
CQUAD4   1271    4       1920    2233    2239    1918
CQUAD4   1272    4       2233    2234    2240    2239
CQUAD4   1273    4       2234    2235    2241    2240
CQUAD4   1274    4       2235    2236    2242    2241
CQUAD4   1275    4       2236    2237    2243    2242
CQUAD4   1276    4       2237    2238    2244    2243
CQUAD4   1277    4       2238    1543    1541    2244
CQUAD4   1278    4       1924    2245    2251    1922
CQUAD4   1279    4       2245    2246    2252    2251
CQUAD4   1280    4       2246    2247    2253    2252
CQUAD4   1281    4       2247    2248    2254    2253
CQUAD4   1282    4       2248    2249    2255    2254
CQUAD4   1283    4       2249    2250    2256    2255
CQUAD4   1284    4       2250    1547    1545    2256
CTRIA3   1289    4       2273    1915    1916
CTRIA3   1291    4       2287    2281    2280
CQUAD4   1292    4       2280    2279    2286    2287
CQUAD4   1293    4       2279    2278    2285    2286
CQUAD4   1294    4       2278    2277    2284    2285
CQUAD4   1295    4       2277    2276    2283    2284
CQUAD4   1296    4       2276    2274    2282    2283
CTRIA3   1297    4       2275    2282    2274
CTRIA3   1299    4       2290    2289    2288
CQUAD4   1304    4       2309    2310    2306    2305
CQUAD4   1305    4       2310    2308    2307    2306
CQUAD4   1485    4       2296    2609    2615    2294
CQUAD4   1486    4       2609    2610    2616    2615
CQUAD4   1487    4       2610    2611    2617    2616
CQUAD4   1488    4       2611    2612    2618    2617
CQUAD4   1489    4       2612    2613    2619    2618
CQUAD4   1490    4       2613    2614    2620    2619
CQUAD4   1491    4       2614    1919    1917    2620
CQUAD4   1492    4       2300    2621    2627    2298
CQUAD4   1493    4       2621    2622    2628    2627
CQUAD4   1494    4       2622    2623    2629    2628
CQUAD4   1495    4       2623    2624    2630    2629
CQUAD4   1496    4       2624    2625    2631    2630
CQUAD4   1497    4       2625    2626    2632    2631
CQUAD4   1498    4       2626    1923    1921    2632
CTRIA3   1503    4       2649    2291    2292
CTRIA3   1505    4       2663    2657    2656
CQUAD4   1506    4       2656    2655    2662    2663
CQUAD4   1507    4       2655    2654    2661    2662
CQUAD4   1508    4       2654    2653    2660    2661
CQUAD4   1509    4       2653    2652    2659    2660
CQUAD4   1510    4       2652    2650    2658    2659
CTRIA3   1511    4       2651    2658    2650
CTRIA3   1513    4       2666    2665    2664
CQUAD4   1518    4       2685    2686    2682    2681
CQUAD4   1519    4       2686    2684    2683    2682
CQUAD4   1699    4       2672    2985    2991    2670
CQUAD4   1700    4       2985    2986    2992    2991
CQUAD4   1701    4       2986    2987    2993    2992
CQUAD4   1702    4       2987    2988    2994    2993
CQUAD4   1703    4       2988    2989    2995    2994
CQUAD4   1704    4       2989    2990    2996    2995
CQUAD4   1705    4       2990    2295    2293    2996
CQUAD4   1706    4       2676    2997    3003    2674
CQUAD4   1707    4       2997    2998    3004    3003
CQUAD4   1708    4       2998    2999    3005    3004
CQUAD4   1709    4       2999    3000    3006    3005
CQUAD4   1710    4       3000    3001    3007    3006
CQUAD4   1711    4       3001    3002    3008    3007
CQUAD4   1712    4       3002    2299    2297    3008
CTRIA3   1717    4       3025    2667    2668
CTRIA3   1719    4       3039    3033    3032
CQUAD4   1720    4       3032    3031    3038    3039
CQUAD4   1721    4       3031    3030    3037    3038
CQUAD4   1722    4       3030    3029    3036    3037
CQUAD4   1723    4       3029    3028    3035    3036
CQUAD4   1724    4       3028    3026    3034    3035
CTRIA3   1725    4       3027    3034    3026
CTRIA3   1727    4       3042    3041    3040
CQUAD4   1732    4       3061    3062    3058    3057
CQUAD4   1733    4       3062    3060    3059    3058
CQUAD4   1913    4       3048    3361    3367    3046
CQUAD4   1914    4       3361    3362    3368    3367
CQUAD4   1915    4       3362    3363    3369    3368
CQUAD4   1916    4       3363    3364    3370    3369
CQUAD4   1917    4       3364    3365    3371    3370
CQUAD4   1918    4       3365    3366    3372    3371
CQUAD4   1919    4       3366    2671    2669    3372
CQUAD4   1920    4       3052    3373    3379    3050
CQUAD4   1921    4       3373    3374    3380    3379
CQUAD4   1922    4       3374    3375    3381    3380
CQUAD4   1923    4       3375    3376    3382    3381
CQUAD4   1924    4       3376    3377    3383    3382
CQUAD4   1925    4       3377    3378    3384    3383
CQUAD4   1926    4       3378    2675    2673    3384
CTRIA3   1931    4       3401    3043    3044
CTRIA3   1933    4       3415    3409    3408
CQUAD4   1934    4       3408    3407    3414    3415
CQUAD4   1935    4       3407    3406    3413    3414
CQUAD4   1936    4       3406    3405    3412    3413
CQUAD4   1937    4       3405    3404    3411    3412
CQUAD4   1938    4       3404    3402    3410    3411
CTRIA3   1939    4       3403    3410    3402
CTRIA3   1941    4       3418    3417    3416
CQUAD4   1946    4       3437    3438    3434    3433
CQUAD4   1947    4       3438    3436    3435    3434
CQUAD4   2127    4       3424    3737    3743    3422
CQUAD4   2128    4       3737    3738    3744    3743
CQUAD4   2129    4       3738    3739    3745    3744
CQUAD4   2130    4       3739    3740    3746    3745
CQUAD4   2131    4       3740    3741    3747    3746
CQUAD4   2132    4       3741    3742    3748    3747
CQUAD4   2133    4       3742    3047    3045    3748
CQUAD4   2134    4       3428    3749    3755    3426
CQUAD4   2135    4       3749    3750    3756    3755
CQUAD4   2136    4       3750    3751    3757    3756
CQUAD4   2137    4       3751    3752    3758    3757
CQUAD4   2138    4       3752    3753    3759    3758
CQUAD4   2139    4       3753    3754    3760    3759
CQUAD4   2140    4       3754    3051    3049    3760
CTRIA3   2145    4       3777    3419    3420
CTRIA3   2147    4       3791    3785    3784
CQUAD4   2148    4       3784    3783    3790    3791
CQUAD4   2149    4       3783    3782    3789    3790
CQUAD4   2150    4       3782    3781    3788    3789
CQUAD4   2151    4       3781    3780    3787    3788
CQUAD4   2152    4       3780    3778    3786    3787
CTRIA3   2153    4       3779    3786    3778
CTRIA3   2155    4       3794    3793    3792
CQUAD4   2160    4       3813    3814    3810    3809
CQUAD4   2161    4       3814    3812    3811    3810
CQUAD4   2341    4       3800    4113    4119    3798
CQUAD4   2342    4       4113    4114    4120    4119
CQUAD4   2343    4       4114    4115    4121    4120
CQUAD4   2344    4       4115    4116    4122    4121
CQUAD4   2345    4       4116    4117    4123    4122
CQUAD4   2346    4       4117    4118    4124    4123
CQUAD4   2347    4       4118    3423    3421    4124
CQUAD4   2348    4       3804    4125    4131    3802
CQUAD4   2349    4       4125    4126    4132    4131
CQUAD4   2350    4       4126    4127    4133    4132
CQUAD4   2351    4       4127    4128    4134    4133
CQUAD4   2352    4       4128    4129    4135    4134
CQUAD4   2353    4       4129    4130    4136    4135
CQUAD4   2354    4       4130    3427    3425    4136
CTRIA3   2359    4       4153    3795    3796
CTRIA3   2361    4       4167    4161    4160
CQUAD4   2362    4       4160    4159    4166    4167
CQUAD4   2363    4       4159    4158    4165    4166
CQUAD4   2364    4       4158    4157    4164    4165
CQUAD4   2365    4       4157    4156    4163    4164
CQUAD4   2366    4       4156    4154    4162    4163
CTRIA3   2367    4       4155    4162    4154
CTRIA3   2369    4       14      4169    16
CQUAD4   2374    4       4189    4190    4186    4185
CQUAD4   2375    4       4190    4188    4187    4186
CQUAD4   2555    4       9       4489    4495    12
CQUAD4   2556    4       4489    4490    4496    4495
CQUAD4   2557    4       4490    4491    4497    4496
CQUAD4   2558    4       4491    4492    4498    4497
CQUAD4   2559    4       4492    4493    4499    4498
CQUAD4   2560    4       4493    4494    4500    4499
CQUAD4   2561    4       4494    3799    3797    4500
CQUAD4   2562    4       5       4501    4507    7
CQUAD4   2563    4       4501    4502    4508    4507
CQUAD4   2564    4       4502    4503    4509    4508
CQUAD4   2565    4       4503    4504    4510    4509
CQUAD4   2566    4       4504    4505    4511    4510
CQUAD4   2567    4       4505    4506    4512    4511
CQUAD4   2568    4       4506    3803    3801    4512
$ Elements and Element Properties for region : Shell_CT_0_90
$ Composite Property Reference Material: Laminate_CT_0_90
$ Composite Material Description :
PCOMP    6                       .089    HILL
         4       .183    0.      YES     2       .183    90.     YES
         4       .183    0.      YES     2       .183    90.     YES
         4       .183    0.      YES     2       .183    90.     YES
         4       .183    0.      YES     2       .183    90.     YES
         4       .183    0.      YES     2       .183    90.     YES
         4       .183    0.      YES     2       .183    90.     YES
         4       .183    0.      YES     2       .183    90.     YES
         4       .183    0.      YES     2       .183    90.     YES
         4       .183    0.      YES     2       .183    90.     YES
         4       .183    0.      YES     2       .183    90.     YES
$ Pset: "Shell_CT_0_90" will be imported as: "pcomp.6"
CQUAD4   1       6       4       3       2       1
CQUAD4   4       6       15      13      14      16
CQUAD4   16      6       36      35      34      32
CQUAD4   19      6       47      48      45      46
CQUAD4   22      6       52      4       1       51
CQUAD4   23      6       48      53      49      45
CQUAD4   230     6       412     411     410     408
CQUAD4   233     6       423     424     421     422
CQUAD4   236     6       428     47      46      427
CQUAD4   237     6       424     429     425     421
CQUAD4   444     6       788     787     786     784
CQUAD4   447     6       799     800     797     798
CQUAD4   450     6       804     423     422     803
CQUAD4   451     6       800     805     801     797
CQUAD4   658     6       1164    1163    1162    1160
CQUAD4   661     6       1175    1176    1173    1174
CQUAD4   664     6       1180    799     798     1179
CQUAD4   665     6       1176    1181    1177    1173
CQUAD4   872     6       1540    1539    1538    1536
CQUAD4   875     6       1551    1552    1549    1550
$ ... 28 like lines cut
$ Elements and Element Properties for region : Shell_CC_33.3
$ Composite Property Reference Material: Laminate_CC_33.3
$ Composite Material Description :
PCOMP    3                       .089    HILL
*        2               .183            0.              YES
*        2               .183            33.299999       YES
*        2               .183            0.              YES
*        2               .183            33.299999       YES
*        2               .183            0.              YES
*        2               .183            33.299999       YES
*        2               .183            0.              YES
*        2               .183            33.299999       YES
*        2               .183            0.              YES
*        2               .183            33.299999       YES
*        2               .183            0.              YES
*        2               .183            33.299999       YES
*        2               .183            0.              YES
*        2               .183            33.299999       YES
*        2               .183            0.              YES
*        2               .183            33.299999       YES
*        2               .183            0.              YES
*        2               .183            33.299999       YES
*        2               .183            0.              YES
*        2               .183            33.299999       YES
$ Pset: "Shell_CC_33.3" will be imported as: "pcomp.3"
CQUAD4   26      3       63      64      66      65
CQUAD4   240     3       439     440     442     441
CQUAD4   454     3       815     816     818     817
CQUAD4   668     3       1191    1192    1194    1193
CQUAD4   882     3       1567    1568    1570    1569
CQUAD4   1096    3       1943    1944    1946    1945
CQUAD4   1310    3       2319    2320    2322    2321
CQUAD4   1524    3       2695    2696    2698    2697
CQUAD4   1738    3       3071    3072    3074    3073
CQUAD4   1952    3       3447    3448    3450    3449
CQUAD4   2166    3       3823    3824    3826    3825
CQUAD4   2380    3       4199    4200    4202    4201
$ Elements and Element Properties for region : Shell_CC_57.5
$ Composite Property Reference Material: Laminate_CC_57.5
$ Composite Material Description :
PCOMP    5                       .089    HILL
         2       .183    0.      YES     2       .183    57.5    YES
         2       .183    0.      YES     2       .183    57.5    YES
         2       .183    0.      YES     2       .183    57.5    YES
         2       .183    0.      YES     2       .183    57.5    YES
         2       .183    0.      YES     2       .183    57.5    YES
         2       .183    0.      YES     2       .183    57.5    YES
         2       .183    0.      YES     2       .183    57.5    YES
         2       .183    0.      YES     2       .183    57.5    YES
         2       .183    0.      YES     2       .183    57.5    YES
         2       .183    0.      YES     2       .183    57.5    YES
$ Pset: "Shell_CC_57.5" will be imported as: "pcomp.5"
CQUAD4   25      5       62      61      59      60
CQUAD4   239     5       438     437     435     436
CQUAD4   453     5       814     813     811     812
CQUAD4   667     5       1190    1189    1187    1188
CQUAD4   881     5       1566    1565    1563    1564
CQUAD4   1095    5       1942    1941    1939    1940
CQUAD4   1309    5       2318    2317    2315    2316
CQUAD4   1523    5       2694    2693    2691    2692
CQUAD4   1737    5       3070    3069    3067    3068
CQUAD4   1951    5       3446    3445    3443    3444
CQUAD4   2165    5       3822    3821    3819    3820
CQUAD4   2379    5       4198    4197    4195    4196
$ Elements and Element Properties for region : Shell_CC_60.9
$ Composite Property Reference Material: Laminate_CC_60.9
$ Composite Material Description :
PCOMP    9                       .089    HILL
*        2               .183            0.              YES
*        2               .183            60.900002       YES
*        2               .183            0.              YES
*        2               .183            60.900002       YES
*        2               .183            0.              YES
*        2               .183            60.900002       YES
*        2               .183            0.              YES
*        2               .183            60.900002       YES
*        2               .183            0.              YES
*        2               .183            60.900002       YES
*        2               .183            0.              YES
*        2               .183            60.900002       YES
*        2               .183            0.              YES
*        2               .183            60.900002       YES
*        2               .183            0.              YES
*        2               .183            60.900002       YES
*        2               .183            0.              YES
*        2               .183            60.900002       YES
*        2               .183            0.              YES
*        2               .183            60.900002       YES
$ Pset: "Shell_CC_60.9" will be imported as: "pcomp.9"
CQUAD4   24      9       58      57      55      56
CQUAD4   238     9       434     433     431     432
CQUAD4   452     9       810     809     807     808
CQUAD4   666     9       1186    1185    1183    1184
CQUAD4   880     9       1562    1561    1559    1560
CQUAD4   1094    9       1938    1937    1935    1936
CQUAD4   1308    9       2314    2313    2311    2312
CQUAD4   1522    9       2690    2689    2687    2688
CQUAD4   1736    9       3066    3065    3063    3064
CQUAD4   1950    9       3442    3441    3439    3440
CQUAD4   2164    9       3818    3817    3815    3816
CQUAD4   2378    9       4194    4193    4191    4192
$ Elements and Element Properties for region : Shell_CT_0_55
$ Composite Property Reference Material: Laminate_CT_0_55
$ Composite Material Description :
PCOMP    7                       .089    HILL
         4       .183    0.      YES     2       .183    55.     YES
         4       .183    0.      YES     2       .183    55.     YES
         4       .183    0.      YES     2       .183    55.     YES
         4       .183    0.      YES     2       .183    55.     YES
         4       .183    0.      YES     2       .183    55.     YES
         4       .183    0.      YES     2       .183    55.     YES
         4       .183    0.      YES     2       .183    55.     YES
         4       .183    0.      YES     2       .183    55.     YES
         4       .183    0.      YES     2       .183    55.     YES
         4       .183    0.      YES     2       .183    55.     YES
$ Pset: "Shell_CT_0_55" will be imported as: "pcomp.7"
CQUAD4   6       7       18      17      15      19
CQUAD4   14      7       33      24      25      32
CQUAD4   220     7       394     393     36      395
CQUAD4   228     7       409     400     401     408
CQUAD4   434     7       770     769     412     771
CQUAD4   442     7       785     776     777     784
CQUAD4   648     7       1146    1145    788     1147
CQUAD4   656     7       1161    1152    1153    1160
CQUAD4   862     7       1522    1521    1164    1523
CQUAD4   870     7       1537    1528    1529    1536
CQUAD4   1076    7       1898    1897    1540    1899
CQUAD4   1084    7       1913    1904    1905    1912
CQUAD4   1290    7       2274    2273    1916    2275
CQUAD4   1298    7       2289    2280    2281    2288
CQUAD4   1504    7       2650    2649    2292    2651
CQUAD4   1512    7       2665    2656    2657    2664
CQUAD4   1718    7       3026    3025    2668    3027
CQUAD4   1726    7       3041    3032    3033    3040
CQUAD4   1932    7       3402    3401    3044    3403
CQUAD4   1940    7       3417    3408    3409    3416
$ ... 4 like lines cut
$ Elements and Element Properties for region : Shell_CTC_0_90_24.1
$ Composite Property Reference Material: Laminate_CTC_0_90_24.1
$ Composite Material Description :
PCOMP    1                       .089    HILL
         2       .183    0.      YES     4       .183    90.     YES
         2       .183    24.1    YES     2       .183    0.      YES
         4       .183    90.     YES     2       .183    24.1    YES
         2       .183    0.      YES     4       .183    90.     YES
         2       .183    24.1    YES     2       .183    0.      YES
         4       .183    90.     YES     2       .183    24.1    YES
         2       .183    0.      YES     4       .183    90.     YES
         2       .183    24.1    YES     2       .183    0.      YES
         4       .183    90.     YES     2       .183    24.1    YES
         2       .183    0.      YES     4       .183    90.     YES
         2       .183    24.1    YES     2       .183    0.      YES
         4       .183    90.     YES     2       .183    24.1    YES
         2       .183    0.      YES     4       .183    90.     YES
         2       .183    24.1    YES     2       .183    0.      YES
         4       .183    90.     YES     2       .183    24.1    YES
$ Pset: "Shell_CTC_0_90_24.1" will be imported as: "pcomp.1"
CQUAD4   2       1       8       6       5       7
CQUAD4   18      1       41      43      44      42
CQUAD4   113     1       6       192     212     5
CQUAD4   130     1       43      228     179     44
CQUAD4   147     1       270     41      42      174
CQUAD4   174     1       161     8       7       306
CQUAD4   232     1       417     419     420     418
CQUAD4   344     1       419     604     555     420
CQUAD4   361     1       646     417     418     550
CQUAD4   446     1       793     795     796     794
CQUAD4   558     1       795     980     931     796
CQUAD4   575     1       1022    793     794     926
CQUAD4   660     1       1169    1171    1172    1170
CQUAD4   772     1       1171    1356    1307    1172
CQUAD4   789     1       1398    1169    1170    1302
CQUAD4   874     1       1545    1547    1548    1546
CQUAD4   986     1       1547    1732    1683    1548
CQUAD4   1003    1       1774    1545    1546    1678
CQUAD4   1088    1       1921    1923    1924    1922
CQUAD4   1200    1       1923    2108    2059    1924
$ ... 16 like lines cut
$ Elements and Element Properties for region : Shell_CTC_0_90_29
$ Composite Property Reference Material: Laminate_CTC_0_90_29
$ Composite Material Description :
PCOMP    8                       .089    HILL
         2       .183    0.      YES     4       .183    90.     YES
         2       .183    29.     YES     2       .183    0.      YES
         4       .183    90.     YES     2       .183    29.     YES
         2       .183    0.      YES     4       .183    90.     YES
         2       .183    29.     YES     2       .183    0.      YES
         4       .183    90.     YES     2       .183    29.     YES
         2       .183    0.      YES     4       .183    90.     YES
         2       .183    29.     YES     2       .183    0.      YES
         4       .183    90.     YES     2       .183    29.     YES
         2       .183    0.      YES     4       .183    90.     YES
         2       .183    29.     YES     2       .183    0.      YES
         4       .183    90.     YES     2       .183    29.     YES
         2       .183    0.      YES     4       .183    90.     YES
         2       .183    29.     YES     2       .183    0.      YES
         4       .183    90.     YES     2       .183    29.     YES
$ Pset: "Shell_CTC_0_90_29" will be imported as: "pcomp.8"
CQUAD4   3       8       11      10      9       12
CQUAD4   17      8       37      39      40      38
CQUAD4   160     8       39      282     141     40
CQUAD4   161     8       10      151     294     9
CQUAD4   175     8       318     37      38      100
CQUAD4   188     8       130     11      12      330
CQUAD4   231     8       413     415     416     414
CQUAD4   374     8       415     658     517     416
CQUAD4   389     8       694     413     414     476
CQUAD4   445     8       789     791     792     790
CQUAD4   588     8       791     1034    893     792
CQUAD4   603     8       1070    789     790     852
CQUAD4   659     8       1165    1167    1168    1166
CQUAD4   802     8       1167    1410    1269    1168
CQUAD4   817     8       1446    1165    1166    1228
CQUAD4   873     8       1541    1543    1544    1542
CQUAD4   1016    8       1543    1786    1645    1544
CQUAD4   1031    8       1822    1541    1542    1604
CQUAD4   1087    8       1917    1919    1920    1918
CQUAD4   1230    8       1919    2162    2021    1920
$ ... 16 like lines cut
$ Referenced Material Records
$ Material Record : IM7_C
$ Description of Material : Date: 28-Nov-21           Time: 22:04:13
MAT8*    2               138.97          9.715           .356
*        4.6680002       4.6680002       4.6680002       1.58-6
                                 2.227   1.418   .044    .199    .089
$ Material Record : IM7_T
$ Description of Material : Date: 28-Nov-21           Time: 22:04:13
MAT8*    4               158.49001       8.9490004       .3156
*        4.6680002       4.6680002       4.6680002       1.58-6
                                 2.227   1.418   .044    .199    .089
$ Multipoint Constraints of the Entire Model
$ ID conflict : the PATRAN MPC ID was 1
RBE2     2569    7000    123456  3       4       47      48      52
         53      54      423     424     428     429     430     799
         800     804     805     806     1175    1176    1180    1181
         1182    1551    1552    1556    1557    1558    1927    1928
         1932    1933    1934    2303    2304    2308    2309    2310
         2679    2680    2684    2685    2686    3055    3056    3060
         3061    3062    3431    3432    3436    3437    3438    3807
         3808    3812    3813    3814    4188    4189    4190
$ Nodes of the Entire Model
GRID*    1                              2.49925494194031 -52.4397315979
*        270.66943359375
GRID*    2                              -2.4992535114288 -52.4397315979
*        270.66943359375
GRID*    3                              -2.4991717338562-49.937496185303
*        280.
GRID*    4                               2.4991729259491-49.937496185303
*        280.
GRID*    5                              -2.5001511573792-78.235687255859
*       174.437637329102
GRID*    6                               2.500164270401 -78.235687255859
*       174.437637329102
GRID*    7                               -2.500146150589-79.485946655273
*       169.772369384766
GRID*    8                              2.50016570091248-79.485939025879
*       169.772369384766
GRID*    9                              -2.4997808933258-100.55850982666
*       91.1322174072266
GRID*    10                             2.49969410896301-100.55851745605
*       91.1322174072266
GRID*    11                             2.49967575073242-101.80852508545
*       86.4669418334961
GRID*    12                             -2.4997594356537-101.80852508545
*       86.4669418334961
GRID*    13                              2.4998767375946-122.47536468506
*       9.33005142211914
GRID*    14                             -2.4998791217804 -122.4753036499
*       9.33027267456055
GRID*    15                              2.4998836517334-124.97499084473
*        0.
GRID*    16                             -2.4998831748962-124.97499084473
*        0.
GRID*    17                             8.96748733520508-122.17220306396
*       9.33009147644043
GRID*    18                             12.5591621398926 -121.8553314209
*       9.33010292053223
GRID*    19                              6.1609058380127-124.84808349609
*       3.814697265625-6
GRID*    20                             20.2831439971924 -120.8099822998
*       9.33013725280762
$ ... 6634 like lines cut
$ Loads for Load Case : BC
SPCADD   2       1       3       4
LOAD     2       1.      1.      1
$ Displacement Constraints of Load Set : SPC_3
SPC1     1       3       15      16      19
SPC1     1       3       25      THRU    32
SPC1     1       3       36      395
SPC1     1       3       401     THRU    408
SPC1     1       3       412     771
SPC1     1       3       777     THRU    784
SPC1     1       3       788     1147
SPC1     1       3       1153    THRU    1160
SPC1     1       3       1164    1523
SPC1     1       3       1529    THRU    1536
SPC1     1       3       1540    1899
SPC1     1       3       1905    THRU    1912
SPC1     1       3       1916    2275
SPC1     1       3       2281    THRU    2288
SPC1     1       3       2292    2651
SPC1     1       3       2657    THRU    2664
SPC1     1       3       2668    3027
SPC1     1       3       3033    THRU    3040
SPC1     1       3       3044    3403
SPC1     1       3       3409    THRU    3416
SPC1     1       3       3420    3779
SPC1     1       3       3785    THRU    3792
SPC1     1       3       3796    4155
SPC1     1       3       4161    THRU    4167
$ Displacement Constraints of Load Set : SPC_1
SPC1     3       1       16
$ Displacement Constraints of Load Set : SPC_12
SPC1     4       12      1916
$ Nodal Forces of Load Set : Force_15kN
FORCE    1       7000    0       15.     0.      0.      -1.
$ Referenced Coordinate Frames
ENDDATA e493efa7
