$ MSC.Nastran input file created on November  28, 2021 at 22:35:04 by
$ Patran 2020  (Student Edition)
$ Direct Text Input for Nastran System Cell Section
$ Direct Text Input for File Management Section
$ Direct Text Input for Executive Control
$ Linear Static Analysis, Database
SOL 101
CEND
$ Direct Text Input for Global Case Control Data
TITLE = MSC.Nastran job created on 28-Nov-21 at 22:30:54
ECHO = NONE
SUBCASE 1
   SUBTITLE=Default
   SPC = 2
   LOAD = 2
   DISPLACEMENT(PLOT,SORT1,REAL)=ALL
   SPCFORCES(PLOT,SORT1,REAL)=ALL
   STRESS(PLOT,SORT1,REAL,VONMISES,BILIN)=ALL
$ Direct Text Input for this Subcase
BEGIN BULK
$ Direct Text Input for Bulk Data
PARAM    POST    0
PARAM   PRTMAXIM YES
$ Elements and Element Properties for region : Shell_3mm
PSHELL   1       1       3.      1               1
$ Pset: "Shell_3mm" will be imported as: "pshell.1"
CQUAD4   1       1       2       1       4       3
CQUAD4   14      1       5       29      30      17
CQUAD4   25      1       52      51      41      31
CQUAD4   36      1       74      73      62      63
CTRIA3   37      1       73      75      62
CQUAD4   38      1       77      76      75      73
CTRIA3   39      1       83      82      89
CQUAD4   40      1       82      81      88      89
CQUAD4   41      1       81      80      87      88
CQUAD4   42      1       80      79      86      87
CQUAD4   43      1       79      78      85      86
CQUAD4   44      1       78      76      84      85
CTRIA3   45      1       76      77      84
CQUAD4   46      1       83      90      91      82
CTRIA3   47      1       90      92      91
CQUAD4   48      1       94      93      92      90
CQUAD4   59      1       95      115     116     105
CQUAD4   70      1       117     137     138     127
CQUAD4   83      1       151     163     164     150
CQUAD4   84      1       165     169     170     166
CQUAD4   85      1       166     170     168     167
CQUAD4   86      1       4       1       167     168
CQUAD4   87      1       150     164     169     165
CQUAD4   185     1       337     338     340     339
CQUAD4   186     1       341     342     344     343
CQUAD4   187     1       345     346     348     347
CQUAD4   188     1       167     1       352     351
CQUAD4   189     1       351     352     354     353
CQUAD4   190     1       353     354     356     355
CQUAD4   191     1       355     356     357     358
CQUAD4   192     1       358     357     360     359
CQUAD4   193     1       359     360     362     361
CQUAD4   194     1       361     362     364     363
CQUAD4   195     1       363     364     347     348
CQUAD4   196     1       150     165     370     369
$ ... 29 like lines cut
CTRIA3   286     1       568     575     574
CQUAD4   287     1       568     569     576     575
CQUAD4   288     1       569     570     577     576
CQUAD4   289     1       570     344     342     577
CTRIA3   292     1       584     583     585
CQUAD4   293     1       584     585     587     586
CQUAD4   294     1       586     587     589     588
CQUAD4   295     1       588     589     342     341
CQUAD4   296     1       592     593     599     30
CQUAD4   297     1       593     594     600     599
CQUAD4   298     1       594     595     601     600
CQUAD4   299     1       595     596     602     601
CQUAD4   300     1       596     341     343     602
CQUAD4   301     1       127     605     611     610
CQUAD4   302     1       605     606     612     611
CQUAD4   303     1       606     607     613     612
CQUAD4   304     1       607     608     614     613
CQUAD4   305     1       608     343     344     614
CQUAD4   308     1       618     619     625     624
CQUAD4   309     1       619     620     626     625
CQUAD4   310     1       620     346     345     626
CQUAD4   313     1       630     631     637     636
CQUAD4   314     1       631     632     638     637
CQUAD4   315     1       632     345     347     638
CTRIA3   316     1       582     581     583
CTRIA3   317     1       583     584     582
CTRIA3   318     1       579     41      581
CTRIA3   319     1       581     582     579
CTRIA3   320     1       567     568     574
CTRIA3   321     1       574     573     567
CTRIA3   322     1       566     567     573
CTRIA3   323     1       573     116     566
CTRIA3   324     1       617     618     624
CTRIA3   325     1       624     623     617
CTRIA3   326     1       616     617     623
CTRIA3   327     1       623     138     616
CTRIA3   328     1       629     630     635
CTRIA3   329     1       636     635     630
CTRIA3   330     1       17      629     634
CTRIA3   331     1       635     634     629
CTRIA3   332     1       105     491     497
CTRIA3   333     1       498     497     491
CTRIA3   334     1       491     492     498
CTRIA3   335     1       499     498     492
$ ... 4 like lines cut
CQUAD4   340     1       17      634     658     5
CQUAD4   341     1       634     641     659     658
CQUAD4   342     1       641     642     660     659
CQUAD4   343     1       642     643     661     660
CQUAD4   344     1       643     644     662     661
CQUAD4   345     1       644     645     663     662
CQUAD4   346     1       645     646     664     663
CQUAD4   347     1       646     647     665     664
CQUAD4   348     1       647     648     666     665
CQUAD4   349     1       648     649     667     666
CQUAD4   350     1       649     650     668     667
CQUAD4   351     1       650     651     669     668
CQUAD4   352     1       651     652     670     669
CQUAD4   353     1       652     653     671     670
CQUAD4   354     1       653     654     672     671
CQUAD4   355     1       654     352     673     672
CQUAD4   356     1       352     1       2       673
CQUAD4   357     1       138     137     678     616
CQUAD4   358     1       616     678     680     679
CQUAD4   359     1       679     680     682     681
$ ... 86 like lines cut
CTRIA3   446     1       94      874     93
CQUAD4   447     1       876     875     874     94
CTRIA3   448     1       882     881     888
CQUAD4   449     1       881     880     887     888
CQUAD4   450     1       880     879     886     887
CQUAD4   451     1       879     878     885     886
CQUAD4   452     1       878     877     884     885
CQUAD4   453     1       877     875     883     884
CTRIA3   454     1       875     876     883
CQUAD4   455     1       882     889     890     881
CTRIA3   456     1       889     891     890
CQUAD4   457     1       898     902     903     899
CQUAD4   458     1       899     903     901     900
CQUAD4   459     1       163     151     900     901
CQUAD4   460     1       896     897     902     898
CQUAD4   461     1       904     905     907     906
CQUAD4   462     1       908     909     911     910
CQUAD4   463     1       912     913     915     914
CQUAD4   464     1       900     151     708     916
CQUAD4   465     1       916     708     919     918
CQUAD4   466     1       918     919     921     920
CQUAD4   467     1       920     921     922     923
CQUAD4   468     1       923     922     925     924
CQUAD4   469     1       924     925     927     926
CQUAD4   470     1       926     927     929     928
CQUAD4   471     1       928     929     914     915
CQUAD4   472     1       896     898     931     930
CQUAD4   473     1       930     931     933     932
CQUAD4   474     1       932     933     935     934
CQUAD4   475     1       934     935     937     936
CQUAD4   476     1       936     937     939     938
$ ... 25 like lines cut
CTRIA3   502     1       991     996     995
CQUAD4   503     1       991     992     997     996
CQUAD4   504     1       992     993     998     997
CQUAD4   505     1       993     911     909     998
CTRIA3   506     1       1003    1002    1004
CQUAD4   507     1       1003    1004    1006    1005
CQUAD4   508     1       1005    1006    1008    1007
CQUAD4   509     1       1007    1008    909     908
CQUAD4   510     1       727     1010    1014    117
CQUAD4   511     1       1010    1011    1015    1014
CQUAD4   512     1       1011    1012    1016    1015
CQUAD4   513     1       1012    1013    1017    1016
CQUAD4   514     1       1013    908     910     1017
CQUAD4   515     1       894     1018    1023    1022
CQUAD4   516     1       1018    1019    1024    1023
CQUAD4   517     1       1019    1020    1025    1024
CQUAD4   518     1       1020    1021    1026    1025
CQUAD4   519     1       1021    910     911     1026
CQUAD4   520     1       1029    1030    1033    1032
CQUAD4   521     1       1030    4178    1034    1033
CQUAD4   522     1       4178    913     912     1034
CQUAD4   523     1       1036    1037    1042    1041
CQUAD4   524     1       1037    1038    1043    1042
CQUAD4   525     1       1038    912     914     1043
CTRIA3   526     1       1001    1000    1002
CTRIA3   527     1       1002    1003    1001
CTRIA3   528     1       739     115     1000
CTRIA3   529     1       1000    1001    739
CTRIA3   530     1       990     991     995
CTRIA3   531     1       995     994     990
CTRIA3   532     1       989     990     994
CTRIA3   533     1       994     893     989
CTRIA3   534     1       1028    1029    1032
CTRIA3   535     1       1032    1031    1028
CTRIA3   536     1       1027    1028    1031
CTRIA3   537     1       1031    895     1027
CTRIA3   538     1       1035    1036    1040
CTRIA3   539     1       1041    1040    1036
CTRIA3   540     1       137     1035    678
CTRIA3   541     1       1040    678     1035
CTRIA3   542     1       892     944     1385
CTRIA3   543     1       949     1385    944
CTRIA3   544     1       944     945     949
CTRIA3   545     1       950     949     945
$ ... 4 like lines cut
CQUAD4   550     1       137     678     616     138
CQUAD4   551     1       678     680     679     616
CQUAD4   552     1       680     682     681     679
CQUAD4   553     1       682     684     683     681
CQUAD4   554     1       684     686     685     683
CQUAD4   555     1       686     688     687     685
CQUAD4   556     1       688     690     689     687
CQUAD4   557     1       690     692     691     689
CQUAD4   558     1       692     694     693     691
CQUAD4   559     1       694     696     695     693
CQUAD4   560     1       696     698     697     695
CQUAD4   561     1       698     700     699     697
CQUAD4   562     1       700     702     701     699
CQUAD4   563     1       702     704     703     701
CQUAD4   564     1       704     706     705     703
CQUAD4   565     1       706     708     369     705
CQUAD4   566     1       708     151     150     369
CQUAD4   567     1       115     739     566     116
CQUAD4   568     1       739     738     723     566
CQUAD4   569     1       738     737     722     723
$ ... 42 like lines cut
CTRIA3   612     1       1158    1160    1156
CQUAD4   613     1       1162    1161    1160    1158
CTRIA3   614     1       1168    1167    1174
CQUAD4   615     1       1167    1166    1173    1174
CQUAD4   616     1       1166    1165    1172    1173
CQUAD4   617     1       1165    1164    1171    1172
CQUAD4   618     1       1164    1163    1170    1171
CQUAD4   619     1       1163    1161    1169    1170
CTRIA3   620     1       1161    1162    1169
CQUAD4   621     1       1168    1175    1176    1167
CTRIA3   622     1       1175    1177    1176
CQUAD4   623     1       1184    1188    1189    1185
CQUAD4   624     1       1185    1189    1187    1186
CQUAD4   625     1       1147    1144    1186    1187
CQUAD4   626     1       1182    1183    1188    1184
CQUAD4   627     1       1190    1191    1193    1192
CQUAD4   628     1       1194    1195    1197    1196
CQUAD4   629     1       1198    1199    1201    1200
CQUAD4   630     1       1186    1144    1203    1202
CQUAD4   631     1       1202    1203    1205    1204
CQUAD4   632     1       1204    1205    1207    1206
CQUAD4   633     1       1206    1207    1208    1209
CQUAD4   634     1       1209    1208    1211    1210
CQUAD4   635     1       1210    1211    1213    1212
CQUAD4   636     1       1212    1213    1215    1214
CQUAD4   637     1       1214    1215    1200    1201
CQUAD4   638     1       1182    1184    1217    1216
CQUAD4   639     1       1216    1217    1219    1218
CQUAD4   640     1       1218    1219    1221    1220
CQUAD4   641     1       1220    1221    1223    1222
CQUAD4   642     1       1222    1223    1225    1224
$ ... 25 like lines cut
CTRIA3   668     1       1277    1282    1281
CQUAD4   669     1       1277    1278    1283    1282
CQUAD4   670     1       1278    1279    1284    1283
CQUAD4   671     1       1279    1197    1195    1284
CTRIA3   672     1       1289    1288    1290
CQUAD4   673     1       1289    1290    1292    1291
CQUAD4   674     1       1291    1292    1294    1293
CQUAD4   675     1       1293    1294    1195    1194
CQUAD4   676     1       1295    1296    1300    1151
CQUAD4   677     1       1296    1297    1301    1300
CQUAD4   678     1       1297    1298    1302    1301
CQUAD4   679     1       1298    1299    1303    1302
CQUAD4   680     1       1299    1194    1196    1303
CQUAD4   681     1       1180    1304    1309    1308
CQUAD4   682     1       1304    1305    1310    1309
CQUAD4   683     1       1305    1306    1311    1310
CQUAD4   684     1       1306    1307    1312    1311
CQUAD4   685     1       1307    1196    1197    1312
CQUAD4   686     1       1315    1316    1319    1318
CQUAD4   687     1       1316    4468    1320    1319
CQUAD4   688     1       4468    1199    1198    1320
CQUAD4   689     1       1322    1323    1328    1327
CQUAD4   690     1       1323    1324    1329    1328
CQUAD4   691     1       1324    1198    1200    1329
CTRIA3   692     1       1287    1286    1288
CTRIA3   693     1       1288    1289    1287
CTRIA3   694     1       1285    1153    1286
CTRIA3   695     1       1286    1287    1285
CTRIA3   696     1       1276    1277    1281
CTRIA3   697     1       1281    1280    1276
CTRIA3   698     1       1275    1276    1280
CTRIA3   699     1       1280    1179    1275
CTRIA3   700     1       1314    1315    1318
CTRIA3   701     1       1318    1317    1314
CTRIA3   702     1       1313    1314    1317
CTRIA3   703     1       1317    1181    1313
CTRIA3   704     1       1321    1322    1326
CTRIA3   705     1       1327    1326    1322
CTRIA3   706     1       1149    1321    1325
CTRIA3   707     1       1326    1325    1321
CTRIA3   708     1       1178    1230    1671
CTRIA3   709     1       1235    1671    1230
CTRIA3   710     1       1230    1231    1235
CTRIA3   711     1       1236    1235    1231
$ ... 4 like lines cut
CQUAD4   716     1       1149    1325    1027    895
CQUAD4   717     1       1325    1330    1346    1027
CQUAD4   718     1       1330    1331    1347    1346
CQUAD4   719     1       1331    1332    1348    1347
CQUAD4   720     1       1332    1333    1349    1348
CQUAD4   721     1       1333    1334    1350    1349
CQUAD4   722     1       1334    1335    1351    1350
CQUAD4   723     1       1335    1336    1352    1351
CQUAD4   724     1       1336    1337    1353    1352
CQUAD4   725     1       1337    1338    1354    1353
CQUAD4   726     1       1338    1339    1355    1354
CQUAD4   727     1       1339    1340    1356    1355
CQUAD4   728     1       1340    1341    1357    1356
CQUAD4   729     1       1341    1342    1358    1357
CQUAD4   730     1       1342    1343    1359    1358
CQUAD4   731     1       1343    1203    930     1359
CQUAD4   732     1       1203    1144    896     930
CQUAD4   733     1       1153    1285    989     893
CQUAD4   734     1       1285    1361    1373    989
CQUAD4   735     1       1361    1362    1374    1373
$ ... 42 like lines cut
CTRIA3   778     1       1444    1446    1442
CQUAD4   779     1       1448    1447    1446    1444
CTRIA3   780     1       1454    1453    1460
CQUAD4   781     1       1453    1452    1459    1460
CQUAD4   782     1       1452    1451    1458    1459
CQUAD4   783     1       1451    1450    1457    1458
CQUAD4   784     1       1450    1449    1456    1457
CQUAD4   785     1       1449    1447    1455    1456
CTRIA3   786     1       1447    1448    1455
CQUAD4   787     1       1454    1461    1462    1453
CTRIA3   788     1       1461    1463    1462
CQUAD4   789     1       1470    1474    1475    1471
CQUAD4   790     1       1471    1475    1473    1472
CQUAD4   791     1       1433    1430    1472    1473
CQUAD4   792     1       1468    1469    1474    1470
CQUAD4   793     1       1476    1477    1479    1478
CQUAD4   794     1       1480    1481    1483    1482
CQUAD4   795     1       1484    1485    1487    1486
CQUAD4   796     1       1472    1430    1489    1488
CQUAD4   797     1       1488    1489    1491    1490
CQUAD4   798     1       1490    1491    1493    1492
CQUAD4   799     1       1492    1493    1494    1495
CQUAD4   800     1       1495    1494    1497    1496
CQUAD4   801     1       1496    1497    1499    1498
CQUAD4   802     1       1498    1499    1501    1500
CQUAD4   803     1       1500    1501    1486    1487
CQUAD4   804     1       1468    1470    1503    1502
CQUAD4   805     1       1502    1503    1505    1504
CQUAD4   806     1       1504    1505    1507    1506
CQUAD4   807     1       1506    1507    1509    1508
CQUAD4   808     1       1508    1509    1511    1510
$ ... 25 like lines cut
CTRIA3   834     1       1563    1568    1567
CQUAD4   835     1       1563    1564    1569    1568
CQUAD4   836     1       1564    1565    1570    1569
CQUAD4   837     1       1565    1483    1481    1570
CTRIA3   838     1       1575    1574    1576
CQUAD4   839     1       1575    1576    1578    1577
CQUAD4   840     1       1577    1578    1580    1579
CQUAD4   841     1       1579    1580    1481    1480
CQUAD4   842     1       1581    1582    1586    1437
CQUAD4   843     1       1582    1583    1587    1586
CQUAD4   844     1       1583    1584    1588    1587
CQUAD4   845     1       1584    1585    1589    1588
CQUAD4   846     1       1585    1480    1482    1589
CQUAD4   847     1       1466    1590    1595    1594
CQUAD4   848     1       1590    1591    1596    1595
CQUAD4   849     1       1591    1592    1597    1596
CQUAD4   850     1       1592    1593    1598    1597
CQUAD4   851     1       1593    1482    1483    1598
CQUAD4   852     1       1601    1602    1605    1604
CQUAD4   853     1       1602    4758    1606    1605
CQUAD4   854     1       4758    1485    1484    1606
CQUAD4   855     1       1608    1609    1614    1613
CQUAD4   856     1       1609    1610    1615    1614
CQUAD4   857     1       1610    1484    1486    1615
CTRIA3   858     1       1573    1572    1574
CTRIA3   859     1       1574    1575    1573
CTRIA3   860     1       1571    1439    1572
CTRIA3   861     1       1572    1573    1571
CTRIA3   862     1       1562    1563    1567
CTRIA3   863     1       1567    1566    1562
CTRIA3   864     1       1561    1562    1566
CTRIA3   865     1       1566    1465    1561
CTRIA3   866     1       1600    1601    1604
CTRIA3   867     1       1604    1603    1600
CTRIA3   868     1       1599    1600    1603
CTRIA3   869     1       1603    1467    1599
CTRIA3   870     1       1607    1608    1612
CTRIA3   871     1       1613    1612    1608
CTRIA3   872     1       1435    1607    1611
CTRIA3   873     1       1612    1611    1607
CTRIA3   874     1       1464    1516    1957
CTRIA3   875     1       1521    1957    1516
CTRIA3   876     1       1516    1517    1521
CTRIA3   877     1       1522    1521    1517
$ ... 4 like lines cut
CQUAD4   882     1       1435    1611    1313    1181
CQUAD4   883     1       1611    1616    1632    1313
CQUAD4   884     1       1616    1617    1633    1632
CQUAD4   885     1       1617    1618    1634    1633
CQUAD4   886     1       1618    1619    1635    1634
CQUAD4   887     1       1619    1620    1636    1635
CQUAD4   888     1       1620    1621    1637    1636
CQUAD4   889     1       1621    1622    1638    1637
CQUAD4   890     1       1622    1623    1639    1638
CQUAD4   891     1       1623    1624    1640    1639
CQUAD4   892     1       1624    1625    1641    1640
CQUAD4   893     1       1625    1626    1642    1641
CQUAD4   894     1       1626    1627    1643    1642
CQUAD4   895     1       1627    1628    1644    1643
CQUAD4   896     1       1628    1629    1645    1644
CQUAD4   897     1       1629    1489    1216    1645
CQUAD4   898     1       1489    1430    1182    1216
CQUAD4   899     1       1439    1571    1275    1179
CQUAD4   900     1       1571    1647    1659    1275
CQUAD4   901     1       1647    1648    1660    1659
$ ... 42 like lines cut
CTRIA3   944     1       1730    1732    1728
CQUAD4   945     1       1734    1733    1732    1730
CTRIA3   946     1       1740    1739    1746
CQUAD4   947     1       1739    1738    1745    1746
CQUAD4   948     1       1738    1737    1744    1745
CQUAD4   949     1       1737    1736    1743    1744
CQUAD4   950     1       1736    1735    1742    1743
CQUAD4   951     1       1735    1733    1741    1742
CTRIA3   952     1       1733    1734    1741
CQUAD4   953     1       1740    1747    1748    1739
CTRIA3   954     1       1747    1749    1748
CQUAD4   955     1       1756    1760    1761    1757
CQUAD4   956     1       1757    1761    1759    1758
CQUAD4   957     1       1719    1716    1758    1759
CQUAD4   958     1       1754    1755    1760    1756
CQUAD4   959     1       1762    1763    1765    1764
CQUAD4   960     1       1766    1767    1769    1768
CQUAD4   961     1       1770    1771    1773    1772
CQUAD4   962     1       1758    1716    1775    1774
CQUAD4   963     1       1774    1775    1777    1776
CQUAD4   964     1       1776    1777    1779    1778
CQUAD4   965     1       1778    1779    1780    1781
CQUAD4   966     1       1781    1780    1783    1782
CQUAD4   967     1       1782    1783    1785    1784
CQUAD4   968     1       1784    1785    1787    1786
CQUAD4   969     1       1786    1787    1772    1773
CQUAD4   970     1       1754    1756    1789    1788
CQUAD4   971     1       1788    1789    1791    1790
CQUAD4   972     1       1790    1791    1793    1792
CQUAD4   973     1       1792    1793    1795    1794
CQUAD4   974     1       1794    1795    1797    1796
$ ... 25 like lines cut
CTRIA3   1000    1       1849    1854    1853
CQUAD4   1001    1       1849    1850    1855    1854
CQUAD4   1002    1       1850    1851    1856    1855
CQUAD4   1003    1       1851    1769    1767    1856
CTRIA3   1004    1       1861    1860    1862
CQUAD4   1005    1       1861    1862    1864    1863
CQUAD4   1006    1       1863    1864    1866    1865
CQUAD4   1007    1       1865    1866    1767    1766
CQUAD4   1008    1       1867    1868    1872    1723
CQUAD4   1009    1       1868    1869    1873    1872
CQUAD4   1010    1       1869    1870    1874    1873
CQUAD4   1011    1       1870    1871    1875    1874
CQUAD4   1012    1       1871    1766    1768    1875
CQUAD4   1013    1       1752    1876    1881    1880
CQUAD4   1014    1       1876    1877    1882    1881
CQUAD4   1015    1       1877    1878    1883    1882
CQUAD4   1016    1       1878    1879    1884    1883
CQUAD4   1017    1       1879    1768    1769    1884
CQUAD4   1018    1       1887    1888    1891    1890
CQUAD4   1019    1       1888    5048    1892    1891
CQUAD4   1020    1       5048    1771    1770    1892
CQUAD4   1021    1       1894    1895    1900    1899
CQUAD4   1022    1       1895    1896    1901    1900
CQUAD4   1023    1       1896    1770    1772    1901
CTRIA3   1024    1       1859    1858    1860
CTRIA3   1025    1       1860    1861    1859
CTRIA3   1026    1       1857    1725    1858
CTRIA3   1027    1       1858    1859    1857
CTRIA3   1028    1       1848    1849    1853
CTRIA3   1029    1       1853    1852    1848
CTRIA3   1030    1       1847    1848    1852
CTRIA3   1031    1       1852    1751    1847
CTRIA3   1032    1       1886    1887    1890
CTRIA3   1033    1       1890    1889    1886
CTRIA3   1034    1       1885    1886    1889
CTRIA3   1035    1       1889    1753    1885
CTRIA3   1036    1       1893    1894    1898
CTRIA3   1037    1       1899    1898    1894
CTRIA3   1038    1       1721    1893    1897
CTRIA3   1039    1       1898    1897    1893
CTRIA3   1040    1       1750    1802    2243
CTRIA3   1041    1       1807    2243    1802
CTRIA3   1042    1       1802    1803    1807
CTRIA3   1043    1       1808    1807    1803
$ ... 4 like lines cut
CQUAD4   1048    1       1721    1897    1599    1467
CQUAD4   1049    1       1897    1902    1918    1599
CQUAD4   1050    1       1902    1903    1919    1918
CQUAD4   1051    1       1903    1904    1920    1919
CQUAD4   1052    1       1904    1905    1921    1920
CQUAD4   1053    1       1905    1906    1922    1921
CQUAD4   1054    1       1906    1907    1923    1922
CQUAD4   1055    1       1907    1908    1924    1923
CQUAD4   1056    1       1908    1909    1925    1924
CQUAD4   1057    1       1909    1910    1926    1925
CQUAD4   1058    1       1910    1911    1927    1926
CQUAD4   1059    1       1911    1912    1928    1927
CQUAD4   1060    1       1912    1913    1929    1928
CQUAD4   1061    1       1913    1914    1930    1929
CQUAD4   1062    1       1914    1915    1931    1930
CQUAD4   1063    1       1915    1775    1502    1931
CQUAD4   1064    1       1775    1716    1468    1502
CQUAD4   1065    1       1725    1857    1561    1465
CQUAD4   1066    1       1857    1933    1945    1561
CQUAD4   1067    1       1933    1934    1946    1945
$ ... 42 like lines cut
CTRIA3   1110    1       2016    2018    2014
CQUAD4   1111    1       2020    2019    2018    2016
CTRIA3   1112    1       2026    2025    2032
CQUAD4   1113    1       2025    2024    2031    2032
CQUAD4   1114    1       2024    2023    2030    2031
CQUAD4   1115    1       2023    2022    2029    2030
CQUAD4   1116    1       2022    2021    2028    2029
CQUAD4   1117    1       2021    2019    2027    2028
CTRIA3   1118    1       2019    2020    2027
CQUAD4   1119    1       2026    2033    2034    2025
CTRIA3   1120    1       2033    2035    2034
CQUAD4   1121    1       2042    2046    2047    2043
CQUAD4   1122    1       2043    2047    2045    2044
CQUAD4   1123    1       2005    2002    2044    2045
CQUAD4   1124    1       2040    2041    2046    2042
CQUAD4   1125    1       2048    2049    2051    2050
CQUAD4   1126    1       2052    2053    2055    2054
CQUAD4   1127    1       2056    2057    2059    2058
CQUAD4   1128    1       2044    2002    2061    2060
CQUAD4   1129    1       2060    2061    2063    2062
CQUAD4   1130    1       2062    2063    2065    2064
CQUAD4   1131    1       2064    2065    2066    2067
CQUAD4   1132    1       2067    2066    2069    2068
CQUAD4   1133    1       2068    2069    2071    2070
CQUAD4   1134    1       2070    2071    2073    2072
CQUAD4   1135    1       2072    2073    2058    2059
CQUAD4   1136    1       2040    2042    2075    2074
CQUAD4   1137    1       2074    2075    2077    2076
CQUAD4   1138    1       2076    2077    2079    2078
CQUAD4   1139    1       2078    2079    2081    2080
CQUAD4   1140    1       2080    2081    2083    2082
$ ... 25 like lines cut
CTRIA3   1166    1       2135    2140    2139
CQUAD4   1167    1       2135    2136    2141    2140
CQUAD4   1168    1       2136    2137    2142    2141
CQUAD4   1169    1       2137    2055    2053    2142
CTRIA3   1170    1       2147    2146    2148
CQUAD4   1171    1       2147    2148    2150    2149
CQUAD4   1172    1       2149    2150    2152    2151
CQUAD4   1173    1       2151    2152    2053    2052
CQUAD4   1174    1       2153    2154    2158    2009
CQUAD4   1175    1       2154    2155    2159    2158
CQUAD4   1176    1       2155    2156    2160    2159
CQUAD4   1177    1       2156    2157    2161    2160
CQUAD4   1178    1       2157    2052    2054    2161
CQUAD4   1179    1       2038    2162    2167    2166
CQUAD4   1180    1       2162    2163    2168    2167
CQUAD4   1181    1       2163    2164    2169    2168
CQUAD4   1182    1       2164    2165    2170    2169
CQUAD4   1183    1       2165    2054    2055    2170
CQUAD4   1184    1       2173    2174    2177    2176
CQUAD4   1185    1       2174    5338    2178    2177
CQUAD4   1186    1       5338    2057    2056    2178
CQUAD4   1187    1       2180    2181    2186    2185
CQUAD4   1188    1       2181    2182    2187    2186
CQUAD4   1189    1       2182    2056    2058    2187
CTRIA3   1190    1       2145    2144    2146
CTRIA3   1191    1       2146    2147    2145
CTRIA3   1192    1       2143    2011    2144
CTRIA3   1193    1       2144    2145    2143
CTRIA3   1194    1       2134    2135    2139
CTRIA3   1195    1       2139    2138    2134
CTRIA3   1196    1       2133    2134    2138
CTRIA3   1197    1       2138    2037    2133
CTRIA3   1198    1       2172    2173    2176
CTRIA3   1199    1       2176    2175    2172
CTRIA3   1200    1       2171    2172    2175
CTRIA3   1201    1       2175    2039    2171
CTRIA3   1202    1       2179    2180    2184
CTRIA3   1203    1       2185    2184    2180
CTRIA3   1204    1       2007    2179    2183
CTRIA3   1205    1       2184    2183    2179
CTRIA3   1206    1       2036    2088    2529
CTRIA3   1207    1       2093    2529    2088
CTRIA3   1208    1       2088    2089    2093
CTRIA3   1209    1       2094    2093    2089
$ ... 4 like lines cut
CQUAD4   1214    1       2007    2183    1885    1753
CQUAD4   1215    1       2183    2188    2204    1885
CQUAD4   1216    1       2188    2189    2205    2204
CQUAD4   1217    1       2189    2190    2206    2205
CQUAD4   1218    1       2190    2191    2207    2206
CQUAD4   1219    1       2191    2192    2208    2207
CQUAD4   1220    1       2192    2193    2209    2208
CQUAD4   1221    1       2193    2194    2210    2209
CQUAD4   1222    1       2194    2195    2211    2210
CQUAD4   1223    1       2195    2196    2212    2211
CQUAD4   1224    1       2196    2197    2213    2212
CQUAD4   1225    1       2197    2198    2214    2213
CQUAD4   1226    1       2198    2199    2215    2214
CQUAD4   1227    1       2199    2200    2216    2215
CQUAD4   1228    1       2200    2201    2217    2216
CQUAD4   1229    1       2201    2061    1788    2217
CQUAD4   1230    1       2061    2002    1754    1788
CQUAD4   1231    1       2011    2143    1847    1751
CQUAD4   1232    1       2143    2219    2231    1847
CQUAD4   1233    1       2219    2220    2232    2231
$ ... 42 like lines cut
CTRIA3   1276    1       2302    2304    2300
CQUAD4   1277    1       2306    2305    2304    2302
CTRIA3   1278    1       2312    2311    2318
CQUAD4   1279    1       2311    2310    2317    2318
CQUAD4   1280    1       2310    2309    2316    2317
CQUAD4   1281    1       2309    2308    2315    2316
CQUAD4   1282    1       2308    2307    2314    2315
CQUAD4   1283    1       2307    2305    2313    2314
CTRIA3   1284    1       2305    2306    2313
CQUAD4   1285    1       2312    2319    2320    2311
CTRIA3   1286    1       2319    2321    2320
CQUAD4   1287    1       2328    2332    2333    2329
CQUAD4   1288    1       2329    2333    2331    2330
CQUAD4   1289    1       2291    2288    2330    2331
CQUAD4   1290    1       2326    2327    2332    2328
CQUAD4   1291    1       2334    2335    2337    2336
CQUAD4   1292    1       2338    2339    2341    2340
CQUAD4   1293    1       2342    2343    2345    2344
CQUAD4   1294    1       2330    2288    2347    2346
CQUAD4   1295    1       2346    2347    2349    2348
CQUAD4   1296    1       2348    2349    2351    2350
CQUAD4   1297    1       2350    2351    2352    2353
CQUAD4   1298    1       2353    2352    2355    2354
CQUAD4   1299    1       2354    2355    2357    2356
CQUAD4   1300    1       2356    2357    2359    2358
CQUAD4   1301    1       2358    2359    2344    2345
CQUAD4   1302    1       2326    2328    2361    2360
CQUAD4   1303    1       2360    2361    2363    2362
CQUAD4   1304    1       2362    2363    2365    2364
CQUAD4   1305    1       2364    2365    2367    2366
CQUAD4   1306    1       2366    2367    2369    2368
$ ... 25 like lines cut
CTRIA3   1332    1       2421    2426    2425
CQUAD4   1333    1       2421    2422    2427    2426
CQUAD4   1334    1       2422    2423    2428    2427
CQUAD4   1335    1       2423    2341    2339    2428
CTRIA3   1336    1       2433    2432    2434
CQUAD4   1337    1       2433    2434    2436    2435
CQUAD4   1338    1       2435    2436    2438    2437
CQUAD4   1339    1       2437    2438    2339    2338
CQUAD4   1340    1       2439    2440    2444    2295
CQUAD4   1341    1       2440    2441    2445    2444
CQUAD4   1342    1       2441    2442    2446    2445
CQUAD4   1343    1       2442    2443    2447    2446
CQUAD4   1344    1       2443    2338    2340    2447
CQUAD4   1345    1       2324    2448    2453    2452
CQUAD4   1346    1       2448    2449    2454    2453
CQUAD4   1347    1       2449    2450    2455    2454
CQUAD4   1348    1       2450    2451    2456    2455
CQUAD4   1349    1       2451    2340    2341    2456
CQUAD4   1350    1       2459    2460    2463    2462
CQUAD4   1351    1       2460    5628    2464    2463
CQUAD4   1352    1       5628    2343    2342    2464
CQUAD4   1353    1       2466    2467    2472    2471
CQUAD4   1354    1       2467    2468    2473    2472
CQUAD4   1355    1       2468    2342    2344    2473
CTRIA3   1356    1       2431    2430    2432
CTRIA3   1357    1       2432    2433    2431
CTRIA3   1358    1       2429    2297    2430
CTRIA3   1359    1       2430    2431    2429
CTRIA3   1360    1       2420    2421    2425
CTRIA3   1361    1       2425    2424    2420
CTRIA3   1362    1       2419    2420    2424
CTRIA3   1363    1       2424    2323    2419
CTRIA3   1364    1       2458    2459    2462
CTRIA3   1365    1       2462    2461    2458
CTRIA3   1366    1       2457    2458    2461
CTRIA3   1367    1       2461    2325    2457
CTRIA3   1368    1       2465    2466    2470
CTRIA3   1369    1       2471    2470    2466
CTRIA3   1370    1       2293    2465    2469
CTRIA3   1371    1       2470    2469    2465
CTRIA3   1372    1       2322    2374    2815
CTRIA3   1373    1       2379    2815    2374
CTRIA3   1374    1       2374    2375    2379
CTRIA3   1375    1       2380    2379    2375
$ ... 4 like lines cut
CQUAD4   1380    1       2293    2469    2171    2039
CQUAD4   1381    1       2469    2474    2490    2171
CQUAD4   1382    1       2474    2475    2491    2490
CQUAD4   1383    1       2475    2476    2492    2491
CQUAD4   1384    1       2476    2477    2493    2492
CQUAD4   1385    1       2477    2478    2494    2493
CQUAD4   1386    1       2478    2479    2495    2494
CQUAD4   1387    1       2479    2480    2496    2495
CQUAD4   1388    1       2480    2481    2497    2496
CQUAD4   1389    1       2481    2482    2498    2497
CQUAD4   1390    1       2482    2483    2499    2498
CQUAD4   1391    1       2483    2484    2500    2499
CQUAD4   1392    1       2484    2485    2501    2500
CQUAD4   1393    1       2485    2486    2502    2501
CQUAD4   1394    1       2486    2487    2503    2502
CQUAD4   1395    1       2487    2347    2074    2503
CQUAD4   1396    1       2347    2288    2040    2074
CQUAD4   1397    1       2297    2429    2133    2037
CQUAD4   1398    1       2429    2505    2517    2133
CQUAD4   1399    1       2505    2506    2518    2517
$ ... 42 like lines cut
CTRIA3   1442    1       2588    2590    2586
CQUAD4   1443    1       2592    2591    2590    2588
CTRIA3   1444    1       2598    2597    2604
CQUAD4   1445    1       2597    2596    2603    2604
CQUAD4   1446    1       2596    2595    2602    2603
CQUAD4   1447    1       2595    2594    2601    2602
CQUAD4   1448    1       2594    2593    2600    2601
CQUAD4   1449    1       2593    2591    2599    2600
CTRIA3   1450    1       2591    2592    2599
CQUAD4   1451    1       2598    2605    2606    2597
CTRIA3   1452    1       2605    2607    2606
CQUAD4   1453    1       2614    2618    2619    2615
CQUAD4   1454    1       2615    2619    2617    2616
CQUAD4   1455    1       2577    2574    2616    2617
CQUAD4   1456    1       2612    2613    2618    2614
CQUAD4   1457    1       2620    2621    2623    2622
CQUAD4   1458    1       2624    2625    2627    2626
CQUAD4   1459    1       2628    2629    2631    2630
CQUAD4   1460    1       2616    2574    2633    2632
CQUAD4   1461    1       2632    2633    2635    2634
CQUAD4   1462    1       2634    2635    2637    2636
CQUAD4   1463    1       2636    2637    2638    2639
CQUAD4   1464    1       2639    2638    2641    2640
CQUAD4   1465    1       2640    2641    2643    2642
CQUAD4   1466    1       2642    2643    2645    2644
CQUAD4   1467    1       2644    2645    2630    2631
CQUAD4   1468    1       2612    2614    2647    2646
CQUAD4   1469    1       2646    2647    2649    2648
CQUAD4   1470    1       2648    2649    2651    2650
CQUAD4   1471    1       2650    2651    2653    2652
CQUAD4   1472    1       2652    2653    2655    2654
$ ... 25 like lines cut
CTRIA3   1498    1       2707    2712    2711
CQUAD4   1499    1       2707    2708    2713    2712
CQUAD4   1500    1       2708    2709    2714    2713
CQUAD4   1501    1       2709    2627    2625    2714
CTRIA3   1502    1       2719    2718    2720
CQUAD4   1503    1       2719    2720    2722    2721
CQUAD4   1504    1       2721    2722    2724    2723
CQUAD4   1505    1       2723    2724    2625    2624
CQUAD4   1506    1       2725    2726    2730    2581
CQUAD4   1507    1       2726    2727    2731    2730
CQUAD4   1508    1       2727    2728    2732    2731
CQUAD4   1509    1       2728    2729    2733    2732
CQUAD4   1510    1       2729    2624    2626    2733
CQUAD4   1511    1       2610    2734    2739    2738
CQUAD4   1512    1       2734    2735    2740    2739
CQUAD4   1513    1       2735    2736    2741    2740
CQUAD4   1514    1       2736    2737    2742    2741
CQUAD4   1515    1       2737    2626    2627    2742
CQUAD4   1516    1       2745    2746    2749    2748
CQUAD4   1517    1       2746    5918    2750    2749
CQUAD4   1518    1       5918    2629    2628    2750
CQUAD4   1519    1       2752    2753    2758    2757
CQUAD4   1520    1       2753    2754    2759    2758
CQUAD4   1521    1       2754    2628    2630    2759
CTRIA3   1522    1       2717    2716    2718
CTRIA3   1523    1       2718    2719    2717
CTRIA3   1524    1       2715    2583    2716
CTRIA3   1525    1       2716    2717    2715
CTRIA3   1526    1       2706    2707    2711
CTRIA3   1527    1       2711    2710    2706
CTRIA3   1528    1       2705    2706    2710
CTRIA3   1529    1       2710    2609    2705
CTRIA3   1530    1       2744    2745    2748
CTRIA3   1531    1       2748    2747    2744
CTRIA3   1532    1       2743    2744    2747
CTRIA3   1533    1       2747    2611    2743
CTRIA3   1534    1       2751    2752    2756
CTRIA3   1535    1       2757    2756    2752
CTRIA3   1536    1       2579    2751    2755
CTRIA3   1537    1       2756    2755    2751
CTRIA3   1538    1       2608    2660    3101
CTRIA3   1539    1       2665    3101    2660
CTRIA3   1540    1       2660    2661    2665
CTRIA3   1541    1       2666    2665    2661
$ ... 4 like lines cut
CQUAD4   1546    1       2579    2755    2457    2325
CQUAD4   1547    1       2755    2760    2776    2457
CQUAD4   1548    1       2760    2761    2777    2776
CQUAD4   1549    1       2761    2762    2778    2777
CQUAD4   1550    1       2762    2763    2779    2778
CQUAD4   1551    1       2763    2764    2780    2779
CQUAD4   1552    1       2764    2765    2781    2780
CQUAD4   1553    1       2765    2766    2782    2781
CQUAD4   1554    1       2766    2767    2783    2782
CQUAD4   1555    1       2767    2768    2784    2783
CQUAD4   1556    1       2768    2769    2785    2784
CQUAD4   1557    1       2769    2770    2786    2785
CQUAD4   1558    1       2770    2771    2787    2786
CQUAD4   1559    1       2771    2772    2788    2787
CQUAD4   1560    1       2772    2773    2789    2788
CQUAD4   1561    1       2773    2633    2360    2789
CQUAD4   1562    1       2633    2574    2326    2360
CQUAD4   1563    1       2583    2715    2419    2323
CQUAD4   1564    1       2715    2791    2803    2419
CQUAD4   1565    1       2791    2792    2804    2803
$ ... 42 like lines cut
CTRIA3   1608    1       2874    2876    2872
CQUAD4   1609    1       2878    2877    2876    2874
CTRIA3   1610    1       2884    2883    2890
CQUAD4   1611    1       2883    2882    2889    2890
CQUAD4   1612    1       2882    2881    2888    2889
CQUAD4   1613    1       2881    2880    2887    2888
CQUAD4   1614    1       2880    2879    2886    2887
CQUAD4   1615    1       2879    2877    2885    2886
CTRIA3   1616    1       2877    2878    2885
CQUAD4   1617    1       2884    2891    2892    2883
CTRIA3   1618    1       2891    2893    2892
CQUAD4   1619    1       2900    2904    2905    2901
CQUAD4   1620    1       2901    2905    2903    2902
CQUAD4   1621    1       2863    2860    2902    2903
CQUAD4   1622    1       2898    2899    2904    2900
CQUAD4   1623    1       2906    2907    2909    2908
CQUAD4   1624    1       2910    2911    2913    2912
CQUAD4   1625    1       2914    2915    2917    2916
CQUAD4   1626    1       2902    2860    2919    2918
CQUAD4   1627    1       2918    2919    2921    2920
CQUAD4   1628    1       2920    2921    2923    2922
CQUAD4   1629    1       2922    2923    2924    2925
CQUAD4   1630    1       2925    2924    2927    2926
CQUAD4   1631    1       2926    2927    2929    2928
CQUAD4   1632    1       2928    2929    2931    2930
CQUAD4   1633    1       2930    2931    2916    2917
CQUAD4   1634    1       2898    2900    2933    2932
CQUAD4   1635    1       2932    2933    2935    2934
CQUAD4   1636    1       2934    2935    2937    2936
CQUAD4   1637    1       2936    2937    2939    2938
CQUAD4   1638    1       2938    2939    2941    2940
$ ... 25 like lines cut
CTRIA3   1664    1       2993    2998    2997
CQUAD4   1665    1       2993    2994    2999    2998
CQUAD4   1666    1       2994    2995    3000    2999
CQUAD4   1667    1       2995    2913    2911    3000
CTRIA3   1668    1       3005    3004    3006
CQUAD4   1669    1       3005    3006    3008    3007
CQUAD4   1670    1       3007    3008    3010    3009
CQUAD4   1671    1       3009    3010    2911    2910
CQUAD4   1672    1       3011    3012    3016    2867
CQUAD4   1673    1       3012    3013    3017    3016
CQUAD4   1674    1       3013    3014    3018    3017
CQUAD4   1675    1       3014    3015    3019    3018
CQUAD4   1676    1       3015    2910    2912    3019
CQUAD4   1677    1       2896    3020    3025    3024
CQUAD4   1678    1       3020    3021    3026    3025
CQUAD4   1679    1       3021    3022    3027    3026
CQUAD4   1680    1       3022    3023    3028    3027
CQUAD4   1681    1       3023    2912    2913    3028
CQUAD4   1682    1       3031    3032    3035    3034
CQUAD4   1683    1       3032    6208    3036    3035
CQUAD4   1684    1       6208    2915    2914    3036
CQUAD4   1685    1       3038    3039    3044    3043
CQUAD4   1686    1       3039    3040    3045    3044
CQUAD4   1687    1       3040    2914    2916    3045
CTRIA3   1688    1       3003    3002    3004
CTRIA3   1689    1       3004    3005    3003
CTRIA3   1690    1       3001    2869    3002
CTRIA3   1691    1       3002    3003    3001
CTRIA3   1692    1       2992    2993    2997
CTRIA3   1693    1       2997    2996    2992
CTRIA3   1694    1       2991    2992    2996
CTRIA3   1695    1       2996    2895    2991
CTRIA3   1696    1       3030    3031    3034
CTRIA3   1697    1       3034    3033    3030
CTRIA3   1698    1       3029    3030    3033
CTRIA3   1699    1       3033    2897    3029
CTRIA3   1700    1       3037    3038    3042
CTRIA3   1701    1       3043    3042    3038
CTRIA3   1702    1       2865    3037    3041
CTRIA3   1703    1       3042    3041    3037
CTRIA3   1704    1       2894    2946    3387
CTRIA3   1705    1       2951    3387    2946
CTRIA3   1706    1       2946    2947    2951
CTRIA3   1707    1       2952    2951    2947
$ ... 4 like lines cut
CQUAD4   1712    1       2865    3041    2743    2611
CQUAD4   1713    1       3041    3046    3062    2743
CQUAD4   1714    1       3046    3047    3063    3062
CQUAD4   1715    1       3047    3048    3064    3063
CQUAD4   1716    1       3048    3049    3065    3064
CQUAD4   1717    1       3049    3050    3066    3065
CQUAD4   1718    1       3050    3051    3067    3066
CQUAD4   1719    1       3051    3052    3068    3067
CQUAD4   1720    1       3052    3053    3069    3068
CQUAD4   1721    1       3053    3054    3070    3069
CQUAD4   1722    1       3054    3055    3071    3070
CQUAD4   1723    1       3055    3056    3072    3071
CQUAD4   1724    1       3056    3057    3073    3072
CQUAD4   1725    1       3057    3058    3074    3073
CQUAD4   1726    1       3058    3059    3075    3074
CQUAD4   1727    1       3059    2919    2646    3075
CQUAD4   1728    1       2919    2860    2612    2646
CQUAD4   1729    1       2869    3001    2705    2609
CQUAD4   1730    1       3001    3077    3089    2705
CQUAD4   1731    1       3077    3078    3090    3089
$ ... 42 like lines cut
CTRIA3   1774    1       3160    3162    3158
CQUAD4   1775    1       3164    3163    3162    3160
CTRIA3   1776    1       3170    3169    3176
CQUAD4   1777    1       3169    3168    3175    3176
CQUAD4   1778    1       3168    3167    3174    3175
CQUAD4   1779    1       3167    3166    3173    3174
CQUAD4   1780    1       3166    3165    3172    3173
CQUAD4   1781    1       3165    3163    3171    3172
CTRIA3   1782    1       3163    3164    3171
CQUAD4   1783    1       3170    3177    3178    3169
CTRIA3   1784    1       3177    3179    3178
CQUAD4   1785    1       3186    3190    3191    3187
CQUAD4   1786    1       3187    3191    3189    3188
CQUAD4   1787    1       3149    3146    3188    3189
CQUAD4   1788    1       3184    3185    3190    3186
CQUAD4   1789    1       3192    3193    3195    3194
CQUAD4   1790    1       3196    3197    3199    3198
CQUAD4   1791    1       3200    3201    3203    3202
CQUAD4   1792    1       3188    3146    3205    3204
CQUAD4   1793    1       3204    3205    3207    3206
CQUAD4   1794    1       3206    3207    3209    3208
CQUAD4   1795    1       3208    3209    3210    3211
CQUAD4   1796    1       3211    3210    3213    3212
CQUAD4   1797    1       3212    3213    3215    3214
CQUAD4   1798    1       3214    3215    3217    3216
CQUAD4   1799    1       3216    3217    3202    3203
CQUAD4   1800    1       3184    3186    3219    3218
CQUAD4   1801    1       3218    3219    3221    3220
CQUAD4   1802    1       3220    3221    3223    3222
CQUAD4   1803    1       3222    3223    3225    3224
CQUAD4   1804    1       3224    3225    3227    3226
$ ... 25 like lines cut
CTRIA3   1830    1       3279    3284    3283
CQUAD4   1831    1       3279    3280    3285    3284
CQUAD4   1832    1       3280    3281    3286    3285
CQUAD4   1833    1       3281    3199    3197    3286
CTRIA3   1834    1       3291    3290    3292
CQUAD4   1835    1       3291    3292    3294    3293
CQUAD4   1836    1       3293    3294    3296    3295
CQUAD4   1837    1       3295    3296    3197    3196
CQUAD4   1838    1       3297    3298    3302    3153
CQUAD4   1839    1       3298    3299    3303    3302
CQUAD4   1840    1       3299    3300    3304    3303
CQUAD4   1841    1       3300    3301    3305    3304
CQUAD4   1842    1       3301    3196    3198    3305
CQUAD4   1843    1       3182    3306    3311    3310
CQUAD4   1844    1       3306    3307    3312    3311
CQUAD4   1845    1       3307    3308    3313    3312
CQUAD4   1846    1       3308    3309    3314    3313
CQUAD4   1847    1       3309    3198    3199    3314
CQUAD4   1848    1       3317    3318    3321    3320
CQUAD4   1849    1       3318    6498    3322    3321
CQUAD4   1850    1       6498    3201    3200    3322
CQUAD4   1851    1       3324    3325    3330    3329
CQUAD4   1852    1       3325    3326    3331    3330
CQUAD4   1853    1       3326    3200    3202    3331
CTRIA3   1854    1       3289    3288    3290
CTRIA3   1855    1       3290    3291    3289
CTRIA3   1856    1       3287    3155    3288
CTRIA3   1857    1       3288    3289    3287
CTRIA3   1858    1       3278    3279    3283
CTRIA3   1859    1       3283    3282    3278
CTRIA3   1860    1       3277    3278    3282
CTRIA3   1861    1       3282    3181    3277
CTRIA3   1862    1       3316    3317    3320
CTRIA3   1863    1       3320    3319    3316
CTRIA3   1864    1       3315    3316    3319
CTRIA3   1865    1       3319    3183    3315
CTRIA3   1866    1       3323    3324    3328
CTRIA3   1867    1       3329    3328    3324
CTRIA3   1868    1       3151    3323    3327
CTRIA3   1869    1       3328    3327    3323
CTRIA3   1870    1       3180    3232    3673
CTRIA3   1871    1       3237    3673    3232
CTRIA3   1872    1       3232    3233    3237
CTRIA3   1873    1       3238    3237    3233
$ ... 4 like lines cut
CQUAD4   1878    1       3151    3327    3029    2897
CQUAD4   1879    1       3327    3332    3348    3029
CQUAD4   1880    1       3332    3333    3349    3348
CQUAD4   1881    1       3333    3334    3350    3349
CQUAD4   1882    1       3334    3335    3351    3350
CQUAD4   1883    1       3335    3336    3352    3351
CQUAD4   1884    1       3336    3337    3353    3352
CQUAD4   1885    1       3337    3338    3354    3353
CQUAD4   1886    1       3338    3339    3355    3354
CQUAD4   1887    1       3339    3340    3356    3355
CQUAD4   1888    1       3340    3341    3357    3356
CQUAD4   1889    1       3341    3342    3358    3357
CQUAD4   1890    1       3342    3343    3359    3358
CQUAD4   1891    1       3343    3344    3360    3359
CQUAD4   1892    1       3344    3345    3361    3360
CQUAD4   1893    1       3345    3205    2932    3361
CQUAD4   1894    1       3205    3146    2898    2932
CQUAD4   1895    1       3155    3287    2991    2895
CQUAD4   1896    1       3287    3363    3375    2991
CQUAD4   1897    1       3363    3364    3376    3375
$ ... 42 like lines cut
CTRIA3   1940    1       3446    3448    3444
CQUAD4   1941    1       3450    3449    3448    3446
CTRIA3   1942    1       3456    3455    3462
CQUAD4   1943    1       3455    3454    3461    3462
CQUAD4   1944    1       3454    3453    3460    3461
CQUAD4   1945    1       3453    3452    3459    3460
CQUAD4   1946    1       3452    3451    3458    3459
CQUAD4   1947    1       3451    3449    3457    3458
CTRIA3   1948    1       3449    3450    3457
CQUAD4   1949    1       3456    3463    3464    3455
CTRIA3   1950    1       3463    3465    3464
CQUAD4   1951    1       3472    3476    3477    3473
CQUAD4   1952    1       3473    3477    3475    3474
CQUAD4   1953    1       3435    3432    3474    3475
CQUAD4   1954    1       3470    3471    3476    3472
CQUAD4   1955    1       3478    3479    3481    3480
CQUAD4   1956    1       3482    3483    3485    3484
CQUAD4   1957    1       3486    3487    3489    3488
CQUAD4   1958    1       3474    3432    3491    3490
CQUAD4   1959    1       3490    3491    3493    3492
CQUAD4   1960    1       3492    3493    3495    3494
CQUAD4   1961    1       3494    3495    3496    3497
CQUAD4   1962    1       3497    3496    3499    3498
CQUAD4   1963    1       3498    3499    3501    3500
CQUAD4   1964    1       3500    3501    3503    3502
CQUAD4   1965    1       3502    3503    3488    3489
CQUAD4   1966    1       3470    3472    3505    3504
CQUAD4   1967    1       3504    3505    3507    3506
CQUAD4   1968    1       3506    3507    3509    3508
CQUAD4   1969    1       3508    3509    3511    3510
CQUAD4   1970    1       3510    3511    3513    3512
$ ... 25 like lines cut
CTRIA3   1996    1       3565    3570    3569
CQUAD4   1997    1       3565    3566    3571    3570
CQUAD4   1998    1       3566    3567    3572    3571
CQUAD4   1999    1       3567    3485    3483    3572
CTRIA3   2000    1       3577    3576    3578
CQUAD4   2001    1       3577    3578    3580    3579
CQUAD4   2002    1       3579    3580    3582    3581
CQUAD4   2003    1       3581    3582    3483    3482
CQUAD4   2004    1       3583    3584    3588    3439
CQUAD4   2005    1       3584    3585    3589    3588
CQUAD4   2006    1       3585    3586    3590    3589
CQUAD4   2007    1       3586    3587    3591    3590
CQUAD4   2008    1       3587    3482    3484    3591
CQUAD4   2009    1       3468    3592    3597    3596
CQUAD4   2010    1       3592    3593    3598    3597
CQUAD4   2011    1       3593    3594    3599    3598
CQUAD4   2012    1       3594    3595    3600    3599
CQUAD4   2013    1       3595    3484    3485    3600
CQUAD4   2014    1       3603    3604    3607    3606
CQUAD4   2015    1       3604    6788    3608    3607
CQUAD4   2016    1       6788    3487    3486    3608
CQUAD4   2017    1       3610    3611    3616    3615
CQUAD4   2018    1       3611    3612    3617    3616
CQUAD4   2019    1       3612    3486    3488    3617
CTRIA3   2020    1       3575    3574    3576
CTRIA3   2021    1       3576    3577    3575
CTRIA3   2022    1       3573    3441    3574
CTRIA3   2023    1       3574    3575    3573
CTRIA3   2024    1       3564    3565    3569
CTRIA3   2025    1       3569    3568    3564
CTRIA3   2026    1       3563    3564    3568
CTRIA3   2027    1       3568    3467    3563
CTRIA3   2028    1       3602    3603    3606
CTRIA3   2029    1       3606    3605    3602
CTRIA3   2030    1       3601    3602    3605
CTRIA3   2031    1       3605    3469    3601
CTRIA3   2032    1       3609    3610    3614
CTRIA3   2033    1       3615    3614    3610
CTRIA3   2034    1       3437    3609    3613
CTRIA3   2035    1       3614    3613    3609
CTRIA3   2036    1       3466    3518    3959
CTRIA3   2037    1       3523    3959    3518
CTRIA3   2038    1       3518    3519    3523
CTRIA3   2039    1       3524    3523    3519
$ ... 4 like lines cut
CQUAD4   2044    1       3437    3613    3315    3183
CQUAD4   2045    1       3613    3618    3634    3315
CQUAD4   2046    1       3618    3619    3635    3634
CQUAD4   2047    1       3619    3620    3636    3635
CQUAD4   2048    1       3620    3621    3637    3636
CQUAD4   2049    1       3621    3622    3638    3637
CQUAD4   2050    1       3622    3623    3639    3638
CQUAD4   2051    1       3623    3624    3640    3639
CQUAD4   2052    1       3624    3625    3641    3640
CQUAD4   2053    1       3625    3626    3642    3641
CQUAD4   2054    1       3626    3627    3643    3642
CQUAD4   2055    1       3627    3628    3644    3643
CQUAD4   2056    1       3628    3629    3645    3644
CQUAD4   2057    1       3629    3630    3646    3645
CQUAD4   2058    1       3630    3631    3647    3646
CQUAD4   2059    1       3631    3491    3218    3647
CQUAD4   2060    1       3491    3432    3184    3218
CQUAD4   2061    1       3441    3573    3277    3181
CQUAD4   2062    1       3573    3649    3661    3277
CQUAD4   2063    1       3649    3650    3662    3661
$ ... 42 like lines cut
CTRIA3   2106    1       3732    3734    3730
CQUAD4   2107    1       3736    3735    3734    3732
CTRIA3   2108    1       3742    3741    3748
CQUAD4   2109    1       3741    3740    3747    3748
CQUAD4   2110    1       3740    3739    3746    3747
CQUAD4   2111    1       3739    3738    3745    3746
CQUAD4   2112    1       3738    3737    3744    3745
CQUAD4   2113    1       3737    3735    3743    3744
CTRIA3   2114    1       3735    3736    3743
CQUAD4   2115    1       3742    74      3750    3741
CTRIA3   2116    1       74      63      3750
CQUAD4   2117    1       3758    3762    3763    3759
CQUAD4   2118    1       3759    3763    3761    3760
CQUAD4   2119    1       3721    3718    3760    3761
CQUAD4   2120    1       2       3       3762    3758
CQUAD4   2121    1       3764    3765    3767    3766
CQUAD4   2122    1       3768    3769    3771    3770
CQUAD4   2123    1       3772    3773    3775    3774
CQUAD4   2124    1       3760    3718    3777    3776
CQUAD4   2125    1       3776    3777    3779    3778
CQUAD4   2126    1       3778    3779    3781    3780
CQUAD4   2127    1       3780    3781    3782    3783
CQUAD4   2128    1       3783    3782    3785    3784
CQUAD4   2129    1       3784    3785    3787    3786
CQUAD4   2130    1       3786    3787    3789    3788
CQUAD4   2131    1       3788    3789    3774    3775
CQUAD4   2132    1       2       3758    3791    673
CQUAD4   2133    1       673     3791    3793    3792
CQUAD4   2134    1       3792    3793    3795    3794
CQUAD4   2135    1       3794    3795    3797    3796
CQUAD4   2136    1       3796    3797    3799    3798
$ ... 25 like lines cut
CTRIA3   2162    1       3851    3856    3855
CQUAD4   2163    1       3851    3852    3857    3856
CQUAD4   2164    1       3852    3853    3858    3857
CQUAD4   2165    1       3853    3771    3769    3858
CTRIA3   2166    1       3863    3862    3864
CQUAD4   2167    1       3863    3864    3866    3865
CQUAD4   2168    1       3865    3866    3868    3867
CQUAD4   2169    1       3867    3868    3769    3768
CQUAD4   2170    1       3869    3870    3874    3725
CQUAD4   2171    1       3870    3871    3875    3874
CQUAD4   2172    1       3871    3872    3876    3875
CQUAD4   2173    1       3872    3873    3877    3876
CQUAD4   2174    1       3873    3768    3770    3877
CQUAD4   2175    1       29      3878    3883    769
CQUAD4   2176    1       3878    3879    3884    3883
CQUAD4   2177    1       3879    3880    3885    3884
CQUAD4   2178    1       3880    3881    3886    3885
CQUAD4   2179    1       3881    3770    3771    3886
CQUAD4   2180    1       3889    3890    3893    3892
CQUAD4   2181    1       3890    7078    3894    3893
CQUAD4   2182    1       7078    3773    3772    3894
CQUAD4   2183    1       3896    3897    3902    3901
CQUAD4   2184    1       3897    3898    3903    3902
CQUAD4   2185    1       3898    3772    3774    3903
CTRIA3   2186    1       3861    3860    3862
CTRIA3   2187    1       3862    3863    3861
CTRIA3   2188    1       3859    3727    3860
CTRIA3   2189    1       3860    3861    3859
CTRIA3   2190    1       3850    3851    3855
CTRIA3   2191    1       3855    3854    3850
CTRIA3   2192    1       757     3850    3854
CTRIA3   2193    1       3854    31      757
CTRIA3   2194    1       3888    3889    3892
CTRIA3   2195    1       3892    3891    3888
CTRIA3   2196    1       658     3888    3891
CTRIA3   2197    1       3891    5       658
CTRIA3   2198    1       3895    3896    3900
CTRIA3   2199    1       3901    3900    3896
CTRIA3   2200    1       3723    3895    3899
CTRIA3   2201    1       3900    3899    3895
CTRIA3   2202    1       52      3804    802
CTRIA3   2203    1       3809    802     3804
CTRIA3   2204    1       3804    3805    3809
CTRIA3   2205    1       3810    3809    3805
$ ... 4 like lines cut
CQUAD4   2210    1       3723    3899    3601    3469
CQUAD4   2211    1       3899    3904    3920    3601
CQUAD4   2212    1       3904    3905    3921    3920
CQUAD4   2213    1       3905    3906    3922    3921
CQUAD4   2214    1       3906    3907    3923    3922
CQUAD4   2215    1       3907    3908    3924    3923
CQUAD4   2216    1       3908    3909    3925    3924
CQUAD4   2217    1       3909    3910    3926    3925
CQUAD4   2218    1       3910    3911    3927    3926
CQUAD4   2219    1       3911    3912    3928    3927
CQUAD4   2220    1       3912    3913    3929    3928
CQUAD4   2221    1       3913    3914    3930    3929
CQUAD4   2222    1       3914    3915    3931    3930
CQUAD4   2223    1       3915    3916    3932    3931
CQUAD4   2224    1       3916    3917    3933    3932
CQUAD4   2225    1       3917    3777    3504    3933
CQUAD4   2226    1       3777    3718    3470    3504
CQUAD4   2227    1       3727    3859    3563    3467
CQUAD4   2228    1       3859    3935    3947    3563
CQUAD4   2229    1       3935    3936    3948    3947
$ ... 38 like lines cut
$ Referenced Material Records
$ Material Record : Al_7075
$ Description of Material : Date: 28-Nov-21           Time: 22:04:13
MAT1*    1               71.699997       26.9            .33
*        2.8100001-6
$ Multipoint Constraints of the Entire Model
$ ID conflict : the PATRAN MPC ID was 1
RBE2     2268    7178    3       3       4       163     164     168
         169     170     897     901     902     903     1147    1183
         1187    1188    1189    1433    1469    1473    1474    1475
         1719    1755    1759    1760    1761    2005    2041    2045
         2046    2047    2291    2327    2331    2332    2333    2577
         2613    2617    2618    2619    2863    2899    2903    2904
         2905    3149    3185    3189    3190    3191    3435    3471
         3475    3476    3477    3721    3761    3762    3763
$ Nodes of the Entire Model
GRID*    1                              2.49925494194031 -52.4397315979
*        270.66943359375
GRID*    2                              -2.4992535114288 -52.4397315979
*        270.66943359375
GRID*    3                              -2.4991717338562-49.937496185303
*        280.
GRID*    4                               2.4991729259491-49.937496185303
*        280.
GRID*    5                              -2.5001511573792-78.235687255859
*       174.437637329102
GRID*    17                              2.500164270401 -78.235687255859
*       174.437637329102
GRID*    29                              -2.500146150589-79.485946655273
*       169.772369384766
GRID*    30                             2.50016570091248-79.485939025879
*       169.772369384766
GRID*    31                             -2.4997808933258-100.55850982666
*       91.1322174072266
GRID*    41                             2.49969410896301-100.55851745605
*       91.1322174072266
GRID*    51                             2.49967575073242-101.80852508545
*       86.4669418334961
GRID*    52                             -2.4997594356537-101.80852508545
*       86.4669418334961
GRID*    62                              2.4998767375946-122.47536468506
*       9.33005142211914
GRID*    63                             -2.4998791217804 -122.4753036499
*       9.33027267456055
GRID*    73                              2.4998836517334-124.97499084473
*        0.
GRID*    74                             -2.4998831748962-124.97499084473
*        0.
GRID*    75                             8.96748733520508-122.17220306396
*       9.33009147644043
GRID*    76                             12.5591621398926 -121.8553314209
*       9.33010292053223
GRID*    77                              6.1609058380127-124.84808349609
*       3.814697265625-6
GRID*    78                             20.2831439971924 -120.8099822998
*       9.33013725280762
$ ... 6586 like lines cut
$ Loads for Load Case : Default
SPCADD   2       1       3       4
LOAD     2       1.      1.      1
$ Displacement Constraints of Load Set : SPC3
SPC1     1       3       73      74      77
SPC1     1       3       83      THRU    90
SPC1     1       3       94      876
SPC1     1       3       882     THRU    889
SPC1     1       3       1158    1162
SPC1     1       3       1168    THRU    1175
SPC1     1       3       1444    1448
SPC1     1       3       1454    THRU    1461
SPC1     1       3       1730    1734
SPC1     1       3       1740    THRU    1747
SPC1     1       3       2016    2020
SPC1     1       3       2026    THRU    2033
SPC1     1       3       2302    2306
SPC1     1       3       2312    THRU    2319
SPC1     1       3       2588    2592
SPC1     1       3       2598    THRU    2605
SPC1     1       3       2874    2878
SPC1     1       3       2884    THRU    2891
SPC1     1       3       3160    3164
SPC1     1       3       3170    THRU    3177
SPC1     1       3       3446    3450
SPC1     1       3       3456    THRU    3463
SPC1     1       3       3732    3736
SPC1     1       3       3742    THRU    3748
$ Displacement Constraints of Load Set : SPC12
SPC1     3       12      2291    2302
$ Displacement Constraints of Load Set : SPC1
SPC1     4       1       3       74
$ Nodal Forces of Load Set : 15kN_Down
FORCE    1       7178    0       15.     0.      0.      -1.
$ Referenced Coordinate Frames
ENDDATA 32802aa1
